                                                                
version 3
run General-0-20251117-14:43:31-29796
attr configname General
attr datetime 20251117-14:43:31
attr datetimef 20251117-144331
attr experiment General
attr inifile MPLSDynamic.ini
attr iterationvars ""
attr iterationvarsd ""
attr iterationvarsf ""
attr measurement ""
attr network insotu.simulations.MPLSDynamic
attr processid 29796
attr repetition 0
attr replication #0
attr resultdir results
attr runnumber 0
attr seedset 0
config image-path ../../inet4.5/images
config network insotu.simulations.MPLSDynamic
config sim-time-limit 60s
config description "Default: Test with link failure on primary path at t=20s"
config **.ipv4.configurator.networkConfiguratorModule "\"\""
config **.ppp[*].ingressTC.typename TC1
config **.ingressTC.numClasses 3
config **.ingressTC.classifier.filters "xmldoc(\"MPLSDynamic_filters.xml\")"
config **.ingressTC.marker.dscps "\"EF AF41 AF42\""
config **.LER*.ppp[*].queue.typename DSQueue1
config **.CoreRouter*.ppp[*].queue.typename DSQueue1
config **.LER*.ppp[*].queue.packetCapacity -1
config **.LER*.ppp[*].queue.*.packetCapacity -1
config **.LER*.ppp[*].queue.wrr.weights "\"5 4 3 2 1\""
config **.CoreRouter*.ppp[*].queue.wrr.weights "\"5 4 3 2 1\""
config **.LER*.rsvp.typename insotu.RsvpTeScriptable
config **.CoreRouter*.rsvp.typename insotu.RsvpTeScriptable
config **.LER*.classifier.typename insotu.RsvpClassifierScriptable
config **.CoreRouter*.classifier.typename insotu.RsvpClassifierScriptable
config *.LER*.autoRestorePrimary false
config *.CoreRouter*.autoRestorePrimary false
config **.LER*.rsvp.helloInterval 0.1s
config **.LER*.rsvp.helloTimeout 0.4s
config **.CoreRouter*.rsvp.helloInterval 0.1s
config **.CoreRouter*.rsvp.helloTimeout 0.4s
config **.ppp[*].ppp.stopOperationExtraTime 0.5s
config *.*.hasStatus true
config **.scalar-recording true
config **.vector-recording true
config **.queue.queueLength.result-recording-modes +vector
config **.queue.queueingTime.result-recording-modes +vector,+stats
config **.app[*].packetSent:vector.result-recording-modes -
config **.app[*].packetReceived:vector.result-recording-modes -
config **.app[*].throughput:vector.result-recording-modes +vector
config **.app[*].rcvdPkLifetime:vector.result-recording-modes +vector
config **.app[*].sentPk:count.result-recording-modes +last
config **.app[*].rcvdPk:count.result-recording-modes +last
config **.ipv4.*.result-recording-modes +stats
config **.Tx*.app[0].typename UdpBasicApp
config **.Tx*.app[0].startTime 1s
config **.Rx*.app[0].typename UdpSink
config *.Tx1.numApps 1
config **.Tx1.app[0].localPort 1000
config **.Tx1.app[0].destPort 1000
config **.Tx1.app[0].messageLength "1400 bytes"
config **.Tx1.app[0].sendInterval 2ms
config **.Tx1.app[0].destAddresses "\"10.2.1.2\""
config **.Tx1.app[0].packetName "\"HighPriority\""
config **.Tx1.app[0].stopTime 59s
config **.Rx1.numApps 1
config **.Rx1.app[0].localPort 1000
config *.Tx2.numApps 1
config **.Tx2.app[0].localPort 2000
config **.Tx2.app[0].destPort 2000
config **.Tx2.app[0].messageLength "1000 bytes"
config **.Tx2.app[0].sendInterval 5ms
config **.Tx2.app[0].destAddresses "\"10.2.2.2\""
config **.Tx2.app[0].packetName "\"MediumPriority\""
config **.Tx2.app[0].stopTime 59s
config **.Rx2.numApps 1
config **.Rx2.app[0].localPort 2000
config *.Tx3.numApps 1
config **.Tx3.app[0].localPort 3000
config **.Tx3.app[0].destPort 3000
config **.Tx3.app[0].messageLength "800 bytes"
config **.Tx3.app[0].sendInterval 10ms
config **.Tx3.app[0].destAddresses "\"10.2.3.2\""
config **.Tx3.app[0].packetName "\"LowPriority\""
config **.Tx3.app[0].stopTime 59s
config **.Rx3.numApps 1
config **.Rx3.app[0].localPort 3000
config **.visualizer.*.displayLinks true
config **.visualizer.*.displayRoutes true
config *.ipv4NetworkConfigurator.config "xmldoc(\"empty.xml\")"
config *.ipv4NetworkConfigurator.addStaticRoutes false
config *.ipv4NetworkConfigurator.addDefaultRoutes false
config *.ipv4NetworkConfigurator.addSubnetRoutes false
config *.ipv4NetworkConfigurator.optimizeRoutes false
config *.LER_Ingress.routerId "\"10.1.3.1\""
config *.LER_Egress.routerId "\"10.2.10.1\""
config *.CoreRouter1.routerId "\"10.1.3.2\""
config *.CoreRouter2.routerId "\"10.1.4.2\""
config *.CoreRouter3.routerId "\"10.1.5.2\""
config **.LER_Ingress.rsvp.traffic "xmldoc(\"LER_Ingress_traffic.xml\")"
config **.LER_Ingress.classifier.config "xmldoc(\"LER_Ingress_fec.xml\")"
config **.LER_Ingress.ipv4.routingTable.routingFile "\"LER_Ingress.rt\""
config **.LER_Egress.ipv4.routingTable.routingFile "\"LER_Egress.rt\""
config **.CoreRouter1.ipv4.routingTable.routingFile "\"CoreRouter1.rt\""
config **.CoreRouter2.ipv4.routingTable.routingFile "\"CoreRouter2.rt\""
config **.CoreRouter3.ipv4.routingTable.routingFile "\"CoreRouter3.rt\""
config **.Tx1.ipv4.routingTable.routingFile "\"Tx1.rt\""
config **.Tx2.ipv4.routingTable.routingFile "\"Tx2.rt\""
config **.Tx3.ipv4.routingTable.routingFile "\"Tx3.rt\""
config **.Rx1.ipv4.routingTable.routingFile "\"Rx1.rt\""
config **.Rx2.ipv4.routingTable.routingFile "\"Rx2.rt\""
config **.Rx3.ipv4.routingTable.routingFile "\"Rx3.rt\""
config **.scenarioManager.script "xmldoc(\"MPLSDynamic_scenario.xml\")"

vector 0 MPLSDynamic.LER_Ingress.ipv4.ip packetDropAddressResolutionFailed:vector(packetBytes) ETV
attr interpolationmode none
attr recordingmode vector(packetBytes)
attr source packetDropReasonIsAddressResolutionFailed(packetDropped)
attr title "packet drop: address resolution failed, packetBytes"
vector 1 MPLSDynamic.LER_Ingress.ipv4.ip packetDropHopLimitReached:vector(packetBytes) ETV
attr interpolationmode none
attr recordingmode vector(packetBytes)
attr source packetDropReasonIsHopLimitReached(packetDropped)
attr title "packet drop: hop limit reached, packetBytes"
vector 2 MPLSDynamic.LER_Ingress.ipv4.ip packetDropForwardingDisabled:vector(packetBytes) ETV
attr interpolationmode none
attr recordingmode vector(packetBytes)
attr source packetDropReasonIsForwardingDisabled(packetDropped)
attr title "packet drop: forwarding disabled, packetBytes"
vector 3 MPLSDynamic.LER_Ingress.ipv4.ip packetDropNoInterfaceFound:vector(packetBytes) ETV
attr interpolationmode none
attr recordingmode vector(packetBytes)
attr source packetDropReasonIsNoInterfaceFound(packetDropped)
attr title "packet drop: no interface found, packetBytes"
vector 4 MPLSDynamic.LER_Ingress.ipv4.ip packetDropNoRouteFound:vector(packetBytes) ETV
attr interpolationmode none
attr recordingmode vector(packetBytes)
attr source packetDropReasonIsNoRouteFound(packetDropped)
attr title "packet drop: no route found, packetBytes"
vector 5 MPLSDynamic.LER_Ingress.ipv4.ip packetDropUndefined:vector(packetBytes) ETV
attr interpolationmode none
attr recordingmode vector(packetBytes)
attr source packetDropReasonIsUndefined(packetDropped)
attr title "packet drop: undefined, packetBytes"
vector 6 MPLSDynamic.LER_Ingress.ipv4.arp arpRequestSent:vector(packetBytes) ETV
attr recordingmode vector(packetBytes)
attr source arpRequestSent
attr title "ARP request sent, packetBytes"
vector 7 MPLSDynamic.LER_Ingress.ipv4.arp arpReplySent:vector(packetBytes) ETV
attr recordingmode vector(packetBytes)
attr source arpReplySent
attr title "ARP replies sent, packetBytes"
vector 8 MPLSDynamic.LER_Ingress.lo[0].lo rcvdPkFromHl:vector(packetBytes) ETV
attr interpolationmode none
attr recordingmode vector(packetBytes)
attr source packetReceivedFromUpper
attr title "packets received from higher layer, packetBytes"
vector 9 MPLSDynamic.LER_Ingress.lo[0].lo passedUpPk:vector(packetBytes) ETV
attr interpolationmode none
attr recordingmode vector(packetBytes)
attr source packetSentToUpper
attr title "packets passed to higher layer, packetBytes"
vector 10 MPLSDynamic.LER_Ingress.lo[0] packetDropInterfaceDown:vector(packetBytes) ETV
attr interpolationmode none
attr recordingmode vector(packetBytes)
attr source packetDropReasonIsInterfaceDown(packetDropped)
attr title "packet drops: interface down, packetBytes"
vector 11 MPLSDynamic.LER_Ingress.lo[0] packetDropNoCarrier:vector(packetBytes) ETV
attr interpolationmode none
attr recordingmode vector(packetBytes)
attr source packetDropReasonIsNoCarrier(packetDropped)
attr title "packet drops: no carrier, packetBytes"
vector 12 MPLSDynamic.LER_Ingress.ppp[0].ingressTC.classifier packetLengths:vector ETV
attr interpolationmode none
attr recordingmode vector
attr source packetLength(packetPushed)
attr title "packet lengths"
attr unit b
vector 13 MPLSDynamic.LER_Ingress.ppp[0].ingressTC.classifier dataRate:vector ETV
attr interpolationmode linear
attr recordingmode vector
attr source throughput(packetPushed)
attr title "data rate"
attr unit bps
vector 14 MPLSDynamic.LER_Ingress.ppp[0].ingressTC.classifier pkClass:vector ETV
attr interpolationmode none
attr recordingmode vector
attr source pkClass
attr title "packet class"
vector 15 MPLSDynamic.LER_Ingress.ppp[0].ingressTC.marker packetMarked:vector(packetBytes) ETV
attr interpolationmode none
attr recordingmode vector(packetBytes)
attr source packetMarked
attr title "packets marked, packetBytes"
vector 16 MPLSDynamic.LER_Ingress.ppp[0].queue.classifier packetLengths:vector ETV
attr interpolationmode none
attr recordingmode vector
attr source packetLength(packetPushed)
attr title "packet lengths"
attr unit b
vector 17 MPLSDynamic.LER_Ingress.ppp[0].queue.classifier dataRate:vector ETV
attr interpolationmode linear
attr recordingmode vector
attr source throughput(packetPushed)
attr title "data rate"
attr unit bps
vector 18 MPLSDynamic.LER_Ingress.ppp[0].queue.classifier pkClass:vector ETV
attr interpolationmode none
attr recordingmode vector
attr source pkClass
attr title "packet class"
vector 19 MPLSDynamic.LER_Ingress.ppp[0].queue.efQueue queueLength:vector ETV
attr autoWarmupFilter false
attr interpolationmode sample-hold
attr recordingmode vector
attr source "warmup(atomic(constant0(packetPushEnded) + count(packetPushStarted) - count(packetPulled) - count(packetRemoved) - count(packetDropped)))"
attr title "queue length"
attr unit pk
vector 20 MPLSDynamic.LER_Ingress.ppp[0].queue.efQueue queueBitLength:vector ETV
attr autoWarmupFilter false
attr interpolationmode sample-hold
attr recordingmode vector
attr source "warmup(atomic(constant0(packetPushEnded) + sum(packetLength(packetPushStarted)) - sum(packetLength(packetPulled)) - sum(packetLength(packetRemoved)) - sum(packetLength(packetDropped))))"
attr title "queue bit length"
attr unit b
vector 21 MPLSDynamic.LER_Ingress.ppp[0].queue.efQueue queueingTime:vector ETV
attr interpolationmode none
attr recordingmode vector
attr source queueingTime(packetPulled)
attr title "queueing times"
attr unit s
vector 22 MPLSDynamic.LER_Ingress.ppp[0].queue.efQueue incomingPacketLengths:vector ETV
attr interpolationmode none
attr recordingmode vector
attr source packetLength(packetPushStarted)
attr title "incoming packet lengths"
attr unit b
vector 23 MPLSDynamic.LER_Ingress.ppp[0].queue.efQueue incomingDataRate:vector ETV
attr interpolationmode linear
attr recordingmode vector
attr source throughput(packetPushStarted)
attr title "incoming datarate"
attr unit bps
vector 24 MPLSDynamic.LER_Ingress.ppp[0].queue.efQueue outgoingPacketLengths:vector ETV
attr interpolationmode none
attr recordingmode vector
attr source packetLength(packetPulled)
attr title "outgoing packet lengths"
attr unit b
vector 25 MPLSDynamic.LER_Ingress.ppp[0].queue.efQueue outgoingDataRate:vector ETV
attr interpolationmode linear
attr recordingmode vector
attr source throughput(packetPulled)
attr title "outgoing datarate"
attr unit bps
vector 26 MPLSDynamic.LER_Ingress.ppp[0].queue.efQueue droppedPacketLengthsQueueOverflow:vector ETV
attr interpolationmode none
attr recordingmode vector
attr source packetLength(packetDropReasonIsQueueOverflow(packetDropped))
attr title "dropped packet lengths: queue overflow"
attr unit b
vector 27 MPLSDynamic.LER_Ingress.ppp[0].queue.efQueue flowQueueingTime:vector ETV
attr interpolationmode none
attr recordingmode vector
attr source queueingTime(demuxFlow(packetPulled))
attr title "flow queueing times"
attr unit s
vector 28 MPLSDynamic.LER_Ingress.ppp[0].queue.efQueue flowIncomingDataRate:vector ETV
attr interpolationmode linear
attr recordingmode vector
attr source throughput(flowPacketLength(demuxFlow(packetPushStarted)))
attr title "flow specific incoming data rate"
attr unit bps
vector 29 MPLSDynamic.LER_Ingress.ppp[0].queue.efQueue flowOutgoingDataRate:vector ETV
attr interpolationmode linear
attr recordingmode vector
attr source throughput(flowPacketLength(demuxFlow(packetPulled)))
attr title "flow specific outgoing data rate"
attr unit bps
vector 30 MPLSDynamic.LER_Ingress.ppp[0].queue.af1xQueue queueLength:vector ETV
attr autoWarmupFilter false
attr interpolationmode sample-hold
attr recordingmode vector
attr source "warmup(atomic(constant0(packetPushEnded) + count(packetPushStarted) - count(packetPulled) - count(packetRemoved) - count(packetDropped)))"
attr title "queue length"
attr unit pk
vector 31 MPLSDynamic.LER_Ingress.ppp[0].queue.af1xQueue queueBitLength:vector ETV
attr autoWarmupFilter false
attr interpolationmode sample-hold
attr recordingmode vector
attr source "warmup(atomic(constant0(packetPushEnded) + sum(packetLength(packetPushStarted)) - sum(packetLength(packetPulled)) - sum(packetLength(packetRemoved)) - sum(packetLength(packetDropped))))"
attr title "queue bit length"
attr unit b
vector 32 MPLSDynamic.LER_Ingress.ppp[0].queue.af1xQueue queueingTime:vector ETV
attr interpolationmode none
attr recordingmode vector
attr source queueingTime(packetPulled)
attr title "queueing times"
attr unit s
vector 33 MPLSDynamic.LER_Ingress.ppp[0].queue.af1xQueue incomingPacketLengths:vector ETV
attr interpolationmode none
attr recordingmode vector
attr source packetLength(packetPushStarted)
attr title "incoming packet lengths"
attr unit b
vector 34 MPLSDynamic.LER_Ingress.ppp[0].queue.af1xQueue incomingDataRate:vector ETV
attr interpolationmode linear
attr recordingmode vector
attr source throughput(packetPushStarted)
attr title "incoming datarate"
attr unit bps
vector 35 MPLSDynamic.LER_Ingress.ppp[0].queue.af1xQueue outgoingPacketLengths:vector ETV
attr interpolationmode none
attr recordingmode vector
attr source packetLength(packetPulled)
attr title "outgoing packet lengths"
attr unit b
vector 36 MPLSDynamic.LER_Ingress.ppp[0].queue.af1xQueue outgoingDataRate:vector ETV
attr interpolationmode linear
attr recordingmode vector
attr source throughput(packetPulled)
attr title "outgoing datarate"
attr unit bps
vector 37 MPLSDynamic.LER_Ingress.ppp[0].queue.af1xQueue droppedPacketLengthsQueueOverflow:vector ETV
attr interpolationmode none
attr recordingmode vector
attr source packetLength(packetDropReasonIsQueueOverflow(packetDropped))
attr title "dropped packet lengths: queue overflow"
attr unit b
vector 38 MPLSDynamic.LER_Ingress.ppp[0].queue.af1xQueue flowQueueingTime:vector ETV
attr interpolationmode none
attr recordingmode vector
attr source queueingTime(demuxFlow(packetPulled))
attr title "flow queueing times"
attr unit s
vector 39 MPLSDynamic.LER_Ingress.ppp[0].queue.af1xQueue flowIncomingDataRate:vector ETV
attr interpolationmode linear
attr recordingmode vector
attr source throughput(flowPacketLength(demuxFlow(packetPushStarted)))
attr title "flow specific incoming data rate"
attr unit bps
vector 40 MPLSDynamic.LER_Ingress.ppp[0].queue.af1xQueue flowOutgoingDataRate:vector ETV
attr interpolationmode linear
attr recordingmode vector
attr source throughput(flowPacketLength(demuxFlow(packetPulled)))
attr title "flow specific outgoing data rate"
attr unit bps
vector 41 MPLSDynamic.LER_Ingress.ppp[0].queue.af2xQueue queueLength:vector ETV
attr autoWarmupFilter false
attr interpolationmode sample-hold
attr recordingmode vector
attr source "warmup(atomic(constant0(packetPushEnded) + count(packetPushStarted) - count(packetPulled) - count(packetRemoved) - count(packetDropped)))"
attr title "queue length"
attr unit pk
vector 42 MPLSDynamic.LER_Ingress.ppp[0].queue.af2xQueue queueBitLength:vector ETV
attr autoWarmupFilter false
attr interpolationmode sample-hold
attr recordingmode vector
attr source "warmup(atomic(constant0(packetPushEnded) + sum(packetLength(packetPushStarted)) - sum(packetLength(packetPulled)) - sum(packetLength(packetRemoved)) - sum(packetLength(packetDropped))))"
attr title "queue bit length"
attr unit b
vector 43 MPLSDynamic.LER_Ingress.ppp[0].queue.af2xQueue queueingTime:vector ETV
attr interpolationmode none
attr recordingmode vector
attr source queueingTime(packetPulled)
attr title "queueing times"
attr unit s
vector 44 MPLSDynamic.LER_Ingress.ppp[0].queue.af2xQueue incomingPacketLengths:vector ETV
attr interpolationmode none
attr recordingmode vector
attr source packetLength(packetPushStarted)
attr title "incoming packet lengths"
attr unit b
vector 45 MPLSDynamic.LER_Ingress.ppp[0].queue.af2xQueue incomingDataRate:vector ETV
attr interpolationmode linear
attr recordingmode vector
attr source throughput(packetPushStarted)
attr title "incoming datarate"
attr unit bps
vector 46 MPLSDynamic.LER_Ingress.ppp[0].queue.af2xQueue outgoingPacketLengths:vector ETV
attr interpolationmode none
attr recordingmode vector
attr source packetLength(packetPulled)
attr title "outgoing packet lengths"
attr unit b
vector 47 MPLSDynamic.LER_Ingress.ppp[0].queue.af2xQueue outgoingDataRate:vector ETV
attr interpolationmode linear
attr recordingmode vector
attr source throughput(packetPulled)
attr title "outgoing datarate"
attr unit bps
vector 48 MPLSDynamic.LER_Ingress.ppp[0].queue.af2xQueue droppedPacketLengthsQueueOverflow:vector ETV
attr interpolationmode none
attr recordingmode vector
attr source packetLength(packetDropReasonIsQueueOverflow(packetDropped))
attr title "dropped packet lengths: queue overflow"
attr unit b
vector 49 MPLSDynamic.LER_Ingress.ppp[0].queue.af2xQueue flowQueueingTime:vector ETV
attr interpolationmode none
attr recordingmode vector
attr source queueingTime(demuxFlow(packetPulled))
attr title "flow queueing times"
attr unit s
vector 50 MPLSDynamic.LER_Ingress.ppp[0].queue.af2xQueue flowIncomingDataRate:vector ETV
attr interpolationmode linear
attr recordingmode vector
attr source throughput(flowPacketLength(demuxFlow(packetPushStarted)))
attr title "flow specific incoming data rate"
attr unit bps
vector 51 MPLSDynamic.LER_Ingress.ppp[0].queue.af2xQueue flowOutgoingDataRate:vector ETV
attr interpolationmode linear
attr recordingmode vector
attr source throughput(flowPacketLength(demuxFlow(packetPulled)))
attr title "flow specific outgoing data rate"
attr unit bps
vector 52 MPLSDynamic.LER_Ingress.ppp[0].queue.af3xQueue queueLength:vector ETV
attr autoWarmupFilter false
attr interpolationmode sample-hold
attr recordingmode vector
attr source "warmup(atomic(constant0(packetPushEnded) + count(packetPushStarted) - count(packetPulled) - count(packetRemoved) - count(packetDropped)))"
attr title "queue length"
attr unit pk
vector 53 MPLSDynamic.LER_Ingress.ppp[0].queue.af3xQueue queueBitLength:vector ETV
attr autoWarmupFilter false
attr interpolationmode sample-hold
attr recordingmode vector
attr source "warmup(atomic(constant0(packetPushEnded) + sum(packetLength(packetPushStarted)) - sum(packetLength(packetPulled)) - sum(packetLength(packetRemoved)) - sum(packetLength(packetDropped))))"
attr title "queue bit length"
attr unit b
vector 54 MPLSDynamic.LER_Ingress.ppp[0].queue.af3xQueue queueingTime:vector ETV
attr interpolationmode none
attr recordingmode vector
attr source queueingTime(packetPulled)
attr title "queueing times"
attr unit s
vector 55 MPLSDynamic.LER_Ingress.ppp[0].queue.af3xQueue incomingPacketLengths:vector ETV
attr interpolationmode none
attr recordingmode vector
attr source packetLength(packetPushStarted)
attr title "incoming packet lengths"
attr unit b
vector 56 MPLSDynamic.LER_Ingress.ppp[0].queue.af3xQueue incomingDataRate:vector ETV
attr interpolationmode linear
attr recordingmode vector
attr source throughput(packetPushStarted)
attr title "incoming datarate"
attr unit bps
vector 57 MPLSDynamic.LER_Ingress.ppp[0].queue.af3xQueue outgoingPacketLengths:vector ETV
attr interpolationmode none
attr recordingmode vector
attr source packetLength(packetPulled)
attr title "outgoing packet lengths"
attr unit b
vector 58 MPLSDynamic.LER_Ingress.ppp[0].queue.af3xQueue outgoingDataRate:vector ETV
attr interpolationmode linear
attr recordingmode vector
attr source throughput(packetPulled)
attr title "outgoing datarate"
attr unit bps
vector 59 MPLSDynamic.LER_Ingress.ppp[0].queue.af3xQueue droppedPacketLengthsQueueOverflow:vector ETV
attr interpolationmode none
attr recordingmode vector
attr source packetLength(packetDropReasonIsQueueOverflow(packetDropped))
attr title "dropped packet lengths: queue overflow"
attr unit b
vector 60 MPLSDynamic.LER_Ingress.ppp[0].queue.af3xQueue flowQueueingTime:vector ETV
attr interpolationmode none
attr recordingmode vector
attr source queueingTime(demuxFlow(packetPulled))
attr title "flow queueing times"
attr unit s
vector 61 MPLSDynamic.LER_Ingress.ppp[0].queue.af3xQueue flowIncomingDataRate:vector ETV
attr interpolationmode linear
attr recordingmode vector
attr source throughput(flowPacketLength(demuxFlow(packetPushStarted)))
attr title "flow specific incoming data rate"
attr unit bps
vector 62 MPLSDynamic.LER_Ingress.ppp[0].queue.af3xQueue flowOutgoingDataRate:vector ETV
attr interpolationmode linear
attr recordingmode vector
attr source throughput(flowPacketLength(demuxFlow(packetPulled)))
attr title "flow specific outgoing data rate"
attr unit bps
vector 63 MPLSDynamic.LER_Ingress.ppp[0].queue.af4xQueue queueLength:vector ETV
attr autoWarmupFilter false
attr interpolationmode sample-hold
attr recordingmode vector
attr source "warmup(atomic(constant0(packetPushEnded) + count(packetPushStarted) - count(packetPulled) - count(packetRemoved) - count(packetDropped)))"
attr title "queue length"
attr unit pk
vector 64 MPLSDynamic.LER_Ingress.ppp[0].queue.af4xQueue queueBitLength:vector ETV
attr autoWarmupFilter false
attr interpolationmode sample-hold
attr recordingmode vector
attr source "warmup(atomic(constant0(packetPushEnded) + sum(packetLength(packetPushStarted)) - sum(packetLength(packetPulled)) - sum(packetLength(packetRemoved)) - sum(packetLength(packetDropped))))"
attr title "queue bit length"
attr unit b
vector 65 MPLSDynamic.LER_Ingress.ppp[0].queue.af4xQueue queueingTime:vector ETV
attr interpolationmode none
attr recordingmode vector
attr source queueingTime(packetPulled)
attr title "queueing times"
attr unit s
vector 66 MPLSDynamic.LER_Ingress.ppp[0].queue.af4xQueue incomingPacketLengths:vector ETV
attr interpolationmode none
attr recordingmode vector
attr source packetLength(packetPushStarted)
attr title "incoming packet lengths"
attr unit b
vector 67 MPLSDynamic.LER_Ingress.ppp[0].queue.af4xQueue incomingDataRate:vector ETV
attr interpolationmode linear
attr recordingmode vector
attr source throughput(packetPushStarted)
attr title "incoming datarate"
attr unit bps
vector 68 MPLSDynamic.LER_Ingress.ppp[0].queue.af4xQueue outgoingPacketLengths:vector ETV
attr interpolationmode none
attr recordingmode vector
attr source packetLength(packetPulled)
attr title "outgoing packet lengths"
attr unit b
vector 69 MPLSDynamic.LER_Ingress.ppp[0].queue.af4xQueue outgoingDataRate:vector ETV
attr interpolationmode linear
attr recordingmode vector
attr source throughput(packetPulled)
attr title "outgoing datarate"
attr unit bps
vector 70 MPLSDynamic.LER_Ingress.ppp[0].queue.af4xQueue droppedPacketLengthsQueueOverflow:vector ETV
attr interpolationmode none
attr recordingmode vector
attr source packetLength(packetDropReasonIsQueueOverflow(packetDropped))
attr title "dropped packet lengths: queue overflow"
attr unit b
vector 71 MPLSDynamic.LER_Ingress.ppp[0].queue.af4xQueue flowQueueingTime:vector ETV
attr interpolationmode none
attr recordingmode vector
attr source queueingTime(demuxFlow(packetPulled))
attr title "flow queueing times"
attr unit s
vector 72 MPLSDynamic.LER_Ingress.ppp[0].queue.af4xQueue flowIncomingDataRate:vector ETV
attr interpolationmode linear
attr recordingmode vector
attr source throughput(flowPacketLength(demuxFlow(packetPushStarted)))
attr title "flow specific incoming data rate"
attr unit bps
vector 73 MPLSDynamic.LER_Ingress.ppp[0].queue.af4xQueue flowOutgoingDataRate:vector ETV
attr interpolationmode linear
attr recordingmode vector
attr source throughput(flowPacketLength(demuxFlow(packetPulled)))
attr title "flow specific outgoing data rate"
attr unit bps
vector 74 MPLSDynamic.LER_Ingress.ppp[0].queue.beQueue queueLength:vector ETV
attr autoWarmupFilter false
attr interpolationmode sample-hold
attr recordingmode vector
attr source "warmup(atomic(constant0(packetPushEnded) + count(packetPushStarted) - count(packetPulled) - count(packetRemoved) - count(packetDropped)))"
attr title "queue length"
attr unit pk
vector 75 MPLSDynamic.LER_Ingress.ppp[0].queue.beQueue queueBitLength:vector ETV
attr autoWarmupFilter false
attr interpolationmode sample-hold
attr recordingmode vector
attr source "warmup(atomic(constant0(packetPushEnded) + sum(packetLength(packetPushStarted)) - sum(packetLength(packetPulled)) - sum(packetLength(packetRemoved)) - sum(packetLength(packetDropped))))"
attr title "queue bit length"
attr unit b
vector 76 MPLSDynamic.LER_Ingress.ppp[0].queue.beQueue queueingTime:vector ETV
attr interpolationmode none
attr recordingmode vector
attr source queueingTime(packetPulled)
attr title "queueing times"
attr unit s
vector 77 MPLSDynamic.LER_Ingress.ppp[0].queue.beQueue incomingPacketLengths:vector ETV
attr interpolationmode none
attr recordingmode vector
attr source packetLength(packetPushStarted)
attr title "incoming packet lengths"
attr unit b
vector 78 MPLSDynamic.LER_Ingress.ppp[0].queue.beQueue incomingDataRate:vector ETV
attr interpolationmode linear
attr recordingmode vector
attr source throughput(packetPushStarted)
attr title "incoming datarate"
attr unit bps
vector 79 MPLSDynamic.LER_Ingress.ppp[0].queue.beQueue outgoingPacketLengths:vector ETV
attr interpolationmode none
attr recordingmode vector
attr source packetLength(packetPulled)
attr title "outgoing packet lengths"
attr unit b
vector 80 MPLSDynamic.LER_Ingress.ppp[0].queue.beQueue outgoingDataRate:vector ETV
attr interpolationmode linear
attr recordingmode vector
attr source throughput(packetPulled)
attr title "outgoing datarate"
attr unit bps
vector 81 MPLSDynamic.LER_Ingress.ppp[0].queue.beQueue droppedPacketLengthsQueueOverflow:vector ETV
attr interpolationmode none
attr recordingmode vector
attr source packetLength(packetDropReasonIsQueueOverflow(packetDropped))
attr title "dropped packet lengths: queue overflow"
attr unit b
vector 82 MPLSDynamic.LER_Ingress.ppp[0].queue.beQueue flowQueueingTime:vector ETV
attr interpolationmode none
attr recordingmode vector
attr source queueingTime(demuxFlow(packetPulled))
attr title "flow queueing times"
attr unit s
vector 83 MPLSDynamic.LER_Ingress.ppp[0].queue.beQueue flowIncomingDataRate:vector ETV
attr interpolationmode linear
attr recordingmode vector
attr source throughput(flowPacketLength(demuxFlow(packetPushStarted)))
attr title "flow specific incoming data rate"
attr unit bps
vector 84 MPLSDynamic.LER_Ingress.ppp[0].queue.beQueue flowOutgoingDataRate:vector ETV
attr interpolationmode linear
attr recordingmode vector
attr source throughput(flowPacketLength(demuxFlow(packetPulled)))
attr title "flow specific outgoing data rate"
attr unit bps
vector 85 MPLSDynamic.LER_Ingress.ppp[0].queue.wrr packetLengths:vector ETV
attr interpolationmode none
attr recordingmode vector
attr source packetLength(packetPulled)
attr title "packet lengths"
attr unit b
vector 86 MPLSDynamic.LER_Ingress.ppp[0].queue.wrr dataRate:vector ETV
attr interpolationmode linear
attr recordingmode vector
attr source throughput(packetPulled)
attr title "data rate"
attr unit bps
vector 87 MPLSDynamic.LER_Ingress.ppp[0].queue.priority packetLengths:vector ETV
attr interpolationmode none
attr recordingmode vector
attr source packetLength(packetPulled)
attr title "packet lengths"
attr unit b
vector 88 MPLSDynamic.LER_Ingress.ppp[0].queue.priority dataRate:vector ETV
attr interpolationmode linear
attr recordingmode vector
attr source throughput(packetPulled)
attr title "data rate"
attr unit bps
vector 89 MPLSDynamic.LER_Ingress.ppp[0].queue queueLength:vector ETV
attr autoWarmupFilter false
attr interpolationmode sample-hold
attr recordingmode vector
attr source "warmup(atomic(constant0(localSignal(packetPushEnded)) + count(localSignal(packetPushStarted)) - count(localSignal(packetPulled)) - count(localSignal(packetRemoved)) - count(localSignal(packetDropped))))"
attr title "queue length"
attr unit pk
vector 90 MPLSDynamic.LER_Ingress.ppp[0].queue queueBitLength:vector ETV
attr autoWarmupFilter false
attr interpolationmode sample-hold
attr recordingmode vector
attr source "warmup(atomic(constant0(localSignal(packetPushEnded)) + sum(packetLength(localSignal(packetPushStarted))) - sum(packetLength(localSignal(packetPulled))) - sum(packetLength(localSignal(packetRemoved))) - sum(packetLength(localSignal(packetDropped)))))"
attr title "queue bit length"
attr unit b
vector 91 MPLSDynamic.LER_Ingress.ppp[0].queue queueingTime:vector ETV
attr interpolationmode none
attr recordingmode vector
attr source queueingTime(localSignal(packetPulled))
attr title "queueing times"
attr unit s
vector 92 MPLSDynamic.LER_Ingress.ppp[0].queue incomingPacketLengths:vector ETV
attr interpolationmode none
attr recordingmode vector
attr source packetLength(localSignal(packetPushStarted))
attr title "incoming packet lengths"
attr unit b
vector 93 MPLSDynamic.LER_Ingress.ppp[0].queue incomingDataRate:vector ETV
attr interpolationmode linear
attr recordingmode vector
attr source throughput(localSignal(packetPushStarted))
attr title "incoming datarate"
attr unit bps
vector 94 MPLSDynamic.LER_Ingress.ppp[0].queue outgoingPacketLengths:vector ETV
attr interpolationmode none
attr recordingmode vector
attr source packetLength(localSignal(packetPulled))
attr title "outgoing packet lengths"
attr unit b
vector 95 MPLSDynamic.LER_Ingress.ppp[0].queue outgoingDataRate:vector ETV
attr interpolationmode linear
attr recordingmode vector
attr source throughput(localSignal(packetPulled))
attr title "outgoing datarate"
attr unit bps
vector 96 MPLSDynamic.LER_Ingress.ppp[0].queue droppedPacketLengthsQueueOverflow:vector ETV
attr interpolationmode none
attr recordingmode vector
attr source packetLength(packetDropReasonIsQueueOverflow(localSignal(packetDropped)))
attr title "dropped packet lengths: queue overflow"
attr unit b
vector 97 MPLSDynamic.LER_Ingress.ppp[0].queue flowQueueingTime:vector ETV
attr interpolationmode none
attr recordingmode vector
attr source queueingTime(demuxFlow(localSignal(packetPulled)))
attr title "flow queueing times"
attr unit s
vector 98 MPLSDynamic.LER_Ingress.ppp[0].queue flowIncomingDataRate:vector ETV
attr interpolationmode linear
attr recordingmode vector
attr source throughput(flowPacketLength(demuxFlow(localSignal(packetPushStarted))))
attr title "flow specific incoming data rate"
attr unit bps
vector 99 MPLSDynamic.LER_Ingress.ppp[0].queue flowOutgoingDataRate:vector ETV
attr interpolationmode linear
attr recordingmode vector
attr source throughput(flowPacketLength(demuxFlow(localSignal(packetPulled))))
attr title "flow specific outgoing data rate"
attr unit bps
vector 100 MPLSDynamic.LER_Ingress.ppp[0].ppp transmissionState:vector ETV
attr interpolationmode sample-hold
attr recordingmode vector
attr source transmissionStateChanged
attr title "tx state"
vector 101 MPLSDynamic.LER_Ingress.ppp[0].ppp txPk:vector(packetBytes) ETV
attr interpolationmode none
attr recordingmode vector(packetBytes)
attr source packetSentToLower
attr title "packets transmitted, packetBytes"
vector 102 MPLSDynamic.LER_Ingress.ppp[0].ppp rxPkOk:vector(packetBytes) ETV
attr interpolationmode none
attr recordingmode vector(packetBytes)
attr source rxPkOk
attr title "packets received OK, packetBytes"
vector 103 MPLSDynamic.LER_Ingress.ppp[0].ppp packetDropIncorrectlyReceived:vector(packetBytes) ETV
attr interpolationmode none
attr recordingmode vector(packetBytes)
attr source packetDropReasonIsIncorrectlyReceived(packetDropped)
attr title "packet drop: incorrectly received, packetBytes"
vector 104 MPLSDynamic.LER_Ingress.ppp[0].ppp packetDropInterfaceDown:vector(packetBytes) ETV
attr interpolationmode none
attr recordingmode vector(packetBytes)
attr source packetDropReasonIsInterfaceDown(packetDropped)
attr title "packet drop: interface down, packetBytes"
vector 105 MPLSDynamic.LER_Ingress.ppp[0].ppp rcvdPkFromHl:vector(packetBytes) ETV
attr interpolationmode none
attr recordingmode vector(packetBytes)
attr source packetReceivedFromUpper
attr title "packets received from higher layer, packetBytes"
vector 106 MPLSDynamic.LER_Ingress.ppp[0].ppp passedUpPk:vector(packetBytes) ETV
attr interpolationmode none
attr recordingmode vector(packetBytes)
attr source packetSentToUpper
attr title "packets passed to higher layer, packetBytes"
vector 107 MPLSDynamic.LER_Ingress.ppp[0] packetDropInterfaceDown:vector(packetBytes) ETV
attr interpolationmode none
attr recordingmode vector(packetBytes)
attr source packetDropReasonIsInterfaceDown(packetDropped)
attr title "packet drops: interface down, packetBytes"
vector 108 MPLSDynamic.LER_Ingress.ppp[0] packetDropNoCarrier:vector(packetBytes) ETV
attr interpolationmode none
attr recordingmode vector(packetBytes)
attr source packetDropReasonIsNoCarrier(packetDropped)
attr title "packet drops: no carrier, packetBytes"
vector 109 MPLSDynamic.LER_Ingress.ppp[1].ingressTC.classifier packetLengths:vector ETV
attr interpolationmode none
attr recordingmode vector
attr source packetLength(packetPushed)
attr title "packet lengths"
attr unit b
vector 110 MPLSDynamic.LER_Ingress.ppp[1].ingressTC.classifier dataRate:vector ETV
attr interpolationmode linear
attr recordingmode vector
attr source throughput(packetPushed)
attr title "data rate"
attr unit bps
vector 111 MPLSDynamic.LER_Ingress.ppp[1].ingressTC.classifier pkClass:vector ETV
attr interpolationmode none
attr recordingmode vector
attr source pkClass
attr title "packet class"
vector 112 MPLSDynamic.LER_Ingress.ppp[1].ingressTC.marker packetMarked:vector(packetBytes) ETV
attr interpolationmode none
attr recordingmode vector(packetBytes)
attr source packetMarked
attr title "packets marked, packetBytes"
vector 113 MPLSDynamic.LER_Ingress.ppp[1].queue.classifier packetLengths:vector ETV
attr interpolationmode none
attr recordingmode vector
attr source packetLength(packetPushed)
attr title "packet lengths"
attr unit b
vector 114 MPLSDynamic.LER_Ingress.ppp[1].queue.classifier dataRate:vector ETV
attr interpolationmode linear
attr recordingmode vector
attr source throughput(packetPushed)
attr title "data rate"
attr unit bps
vector 115 MPLSDynamic.LER_Ingress.ppp[1].queue.classifier pkClass:vector ETV
attr interpolationmode none
attr recordingmode vector
attr source pkClass
attr title "packet class"
vector 116 MPLSDynamic.LER_Ingress.ppp[1].queue.efQueue queueLength:vector ETV
attr autoWarmupFilter false
attr interpolationmode sample-hold
attr recordingmode vector
attr source "warmup(atomic(constant0(packetPushEnded) + count(packetPushStarted) - count(packetPulled) - count(packetRemoved) - count(packetDropped)))"
attr title "queue length"
attr unit pk
vector 117 MPLSDynamic.LER_Ingress.ppp[1].queue.efQueue queueBitLength:vector ETV
attr autoWarmupFilter false
attr interpolationmode sample-hold
attr recordingmode vector
attr source "warmup(atomic(constant0(packetPushEnded) + sum(packetLength(packetPushStarted)) - sum(packetLength(packetPulled)) - sum(packetLength(packetRemoved)) - sum(packetLength(packetDropped))))"
attr title "queue bit length"
attr unit b
vector 118 MPLSDynamic.LER_Ingress.ppp[1].queue.efQueue queueingTime:vector ETV
attr interpolationmode none
attr recordingmode vector
attr source queueingTime(packetPulled)
attr title "queueing times"
attr unit s
vector 119 MPLSDynamic.LER_Ingress.ppp[1].queue.efQueue incomingPacketLengths:vector ETV
attr interpolationmode none
attr recordingmode vector
attr source packetLength(packetPushStarted)
attr title "incoming packet lengths"
attr unit b
vector 120 MPLSDynamic.LER_Ingress.ppp[1].queue.efQueue incomingDataRate:vector ETV
attr interpolationmode linear
attr recordingmode vector
attr source throughput(packetPushStarted)
attr title "incoming datarate"
attr unit bps
vector 121 MPLSDynamic.LER_Ingress.ppp[1].queue.efQueue outgoingPacketLengths:vector ETV
attr interpolationmode none
attr recordingmode vector
attr source packetLength(packetPulled)
attr title "outgoing packet lengths"
attr unit b
vector 122 MPLSDynamic.LER_Ingress.ppp[1].queue.efQueue outgoingDataRate:vector ETV
attr interpolationmode linear
attr recordingmode vector
attr source throughput(packetPulled)
attr title "outgoing datarate"
attr unit bps
vector 123 MPLSDynamic.LER_Ingress.ppp[1].queue.efQueue droppedPacketLengthsQueueOverflow:vector ETV
attr interpolationmode none
attr recordingmode vector
attr source packetLength(packetDropReasonIsQueueOverflow(packetDropped))
attr title "dropped packet lengths: queue overflow"
attr unit b
vector 124 MPLSDynamic.LER_Ingress.ppp[1].queue.efQueue flowQueueingTime:vector ETV
attr interpolationmode none
attr recordingmode vector
attr source queueingTime(demuxFlow(packetPulled))
attr title "flow queueing times"
attr unit s
vector 125 MPLSDynamic.LER_Ingress.ppp[1].queue.efQueue flowIncomingDataRate:vector ETV
attr interpolationmode linear
attr recordingmode vector
attr source throughput(flowPacketLength(demuxFlow(packetPushStarted)))
attr title "flow specific incoming data rate"
attr unit bps
vector 126 MPLSDynamic.LER_Ingress.ppp[1].queue.efQueue flowOutgoingDataRate:vector ETV
attr interpolationmode linear
attr recordingmode vector
attr source throughput(flowPacketLength(demuxFlow(packetPulled)))
attr title "flow specific outgoing data rate"
attr unit bps
vector 127 MPLSDynamic.LER_Ingress.ppp[1].queue.af1xQueue queueLength:vector ETV
attr autoWarmupFilter false
attr interpolationmode sample-hold
attr recordingmode vector
attr source "warmup(atomic(constant0(packetPushEnded) + count(packetPushStarted) - count(packetPulled) - count(packetRemoved) - count(packetDropped)))"
attr title "queue length"
attr unit pk
vector 128 MPLSDynamic.LER_Ingress.ppp[1].queue.af1xQueue queueBitLength:vector ETV
attr autoWarmupFilter false
attr interpolationmode sample-hold
attr recordingmode vector
attr source "warmup(atomic(constant0(packetPushEnded) + sum(packetLength(packetPushStarted)) - sum(packetLength(packetPulled)) - sum(packetLength(packetRemoved)) - sum(packetLength(packetDropped))))"
attr title "queue bit length"
attr unit b
vector 129 MPLSDynamic.LER_Ingress.ppp[1].queue.af1xQueue queueingTime:vector ETV
attr interpolationmode none
attr recordingmode vector
attr source queueingTime(packetPulled)
attr title "queueing times"
attr unit s
vector 130 MPLSDynamic.LER_Ingress.ppp[1].queue.af1xQueue incomingPacketLengths:vector ETV
attr interpolationmode none
attr recordingmode vector
attr source packetLength(packetPushStarted)
attr title "incoming packet lengths"
attr unit b
vector 131 MPLSDynamic.LER_Ingress.ppp[1].queue.af1xQueue incomingDataRate:vector ETV
attr interpolationmode linear
attr recordingmode vector
attr source throughput(packetPushStarted)
attr title "incoming datarate"
attr unit bps
vector 132 MPLSDynamic.LER_Ingress.ppp[1].queue.af1xQueue outgoingPacketLengths:vector ETV
attr interpolationmode none
attr recordingmode vector
attr source packetLength(packetPulled)
attr title "outgoing packet lengths"
attr unit b
vector 133 MPLSDynamic.LER_Ingress.ppp[1].queue.af1xQueue outgoingDataRate:vector ETV
attr interpolationmode linear
attr recordingmode vector
attr source throughput(packetPulled)
attr title "outgoing datarate"
attr unit bps
vector 134 MPLSDynamic.LER_Ingress.ppp[1].queue.af1xQueue droppedPacketLengthsQueueOverflow:vector ETV
attr interpolationmode none
attr recordingmode vector
attr source packetLength(packetDropReasonIsQueueOverflow(packetDropped))
attr title "dropped packet lengths: queue overflow"
attr unit b
vector 135 MPLSDynamic.LER_Ingress.ppp[1].queue.af1xQueue flowQueueingTime:vector ETV
attr interpolationmode none
attr recordingmode vector
attr source queueingTime(demuxFlow(packetPulled))
attr title "flow queueing times"
attr unit s
vector 136 MPLSDynamic.LER_Ingress.ppp[1].queue.af1xQueue flowIncomingDataRate:vector ETV
attr interpolationmode linear
attr recordingmode vector
attr source throughput(flowPacketLength(demuxFlow(packetPushStarted)))
attr title "flow specific incoming data rate"
attr unit bps
vector 137 MPLSDynamic.LER_Ingress.ppp[1].queue.af1xQueue flowOutgoingDataRate:vector ETV
attr interpolationmode linear
attr recordingmode vector
attr source throughput(flowPacketLength(demuxFlow(packetPulled)))
attr title "flow specific outgoing data rate"
attr unit bps
vector 138 MPLSDynamic.LER_Ingress.ppp[1].queue.af2xQueue queueLength:vector ETV
attr autoWarmupFilter false
attr interpolationmode sample-hold
attr recordingmode vector
attr source "warmup(atomic(constant0(packetPushEnded) + count(packetPushStarted) - count(packetPulled) - count(packetRemoved) - count(packetDropped)))"
attr title "queue length"
attr unit pk
vector 139 MPLSDynamic.LER_Ingress.ppp[1].queue.af2xQueue queueBitLength:vector ETV
attr autoWarmupFilter false
attr interpolationmode sample-hold
attr recordingmode vector
attr source "warmup(atomic(constant0(packetPushEnded) + sum(packetLength(packetPushStarted)) - sum(packetLength(packetPulled)) - sum(packetLength(packetRemoved)) - sum(packetLength(packetDropped))))"
attr title "queue bit length"
attr unit b
vector 140 MPLSDynamic.LER_Ingress.ppp[1].queue.af2xQueue queueingTime:vector ETV
attr interpolationmode none
attr recordingmode vector
attr source queueingTime(packetPulled)
attr title "queueing times"
attr unit s
vector 141 MPLSDynamic.LER_Ingress.ppp[1].queue.af2xQueue incomingPacketLengths:vector ETV
attr interpolationmode none
attr recordingmode vector
attr source packetLength(packetPushStarted)
attr title "incoming packet lengths"
attr unit b
vector 142 MPLSDynamic.LER_Ingress.ppp[1].queue.af2xQueue incomingDataRate:vector ETV
attr interpolationmode linear
attr recordingmode vector
attr source throughput(packetPushStarted)
attr title "incoming datarate"
attr unit bps
vector 143 MPLSDynamic.LER_Ingress.ppp[1].queue.af2xQueue outgoingPacketLengths:vector ETV
attr interpolationmode none
attr recordingmode vector
attr source packetLength(packetPulled)
attr title "outgoing packet lengths"
attr unit b
vector 144 MPLSDynamic.LER_Ingress.ppp[1].queue.af2xQueue outgoingDataRate:vector ETV
attr interpolationmode linear
attr recordingmode vector
attr source throughput(packetPulled)
attr title "outgoing datarate"
attr unit bps
vector 145 MPLSDynamic.LER_Ingress.ppp[1].queue.af2xQueue droppedPacketLengthsQueueOverflow:vector ETV
attr interpolationmode none
attr recordingmode vector
attr source packetLength(packetDropReasonIsQueueOverflow(packetDropped))
attr title "dropped packet lengths: queue overflow"
attr unit b
vector 146 MPLSDynamic.LER_Ingress.ppp[1].queue.af2xQueue flowQueueingTime:vector ETV
attr interpolationmode none
attr recordingmode vector
attr source queueingTime(demuxFlow(packetPulled))
attr title "flow queueing times"
attr unit s
vector 147 MPLSDynamic.LER_Ingress.ppp[1].queue.af2xQueue flowIncomingDataRate:vector ETV
attr interpolationmode linear
attr recordingmode vector
attr source throughput(flowPacketLength(demuxFlow(packetPushStarted)))
attr title "flow specific incoming data rate"
attr unit bps
vector 148 MPLSDynamic.LER_Ingress.ppp[1].queue.af2xQueue flowOutgoingDataRate:vector ETV
attr interpolationmode linear
attr recordingmode vector
attr source throughput(flowPacketLength(demuxFlow(packetPulled)))
attr title "flow specific outgoing data rate"
attr unit bps
vector 149 MPLSDynamic.LER_Ingress.ppp[1].queue.af3xQueue queueLength:vector ETV
attr autoWarmupFilter false
attr interpolationmode sample-hold
attr recordingmode vector
attr source "warmup(atomic(constant0(packetPushEnded) + count(packetPushStarted) - count(packetPulled) - count(packetRemoved) - count(packetDropped)))"
attr title "queue length"
attr unit pk
vector 150 MPLSDynamic.LER_Ingress.ppp[1].queue.af3xQueue queueBitLength:vector ETV
attr autoWarmupFilter false
attr interpolationmode sample-hold
attr recordingmode vector
attr source "warmup(atomic(constant0(packetPushEnded) + sum(packetLength(packetPushStarted)) - sum(packetLength(packetPulled)) - sum(packetLength(packetRemoved)) - sum(packetLength(packetDropped))))"
attr title "queue bit length"
attr unit b
vector 151 MPLSDynamic.LER_Ingress.ppp[1].queue.af3xQueue queueingTime:vector ETV
attr interpolationmode none
attr recordingmode vector
attr source queueingTime(packetPulled)
attr title "queueing times"
attr unit s
vector 152 MPLSDynamic.LER_Ingress.ppp[1].queue.af3xQueue incomingPacketLengths:vector ETV
attr interpolationmode none
attr recordingmode vector
attr source packetLength(packetPushStarted)
attr title "incoming packet lengths"
attr unit b
vector 153 MPLSDynamic.LER_Ingress.ppp[1].queue.af3xQueue incomingDataRate:vector ETV
attr interpolationmode linear
attr recordingmode vector
attr source throughput(packetPushStarted)
attr title "incoming datarate"
attr unit bps
vector 154 MPLSDynamic.LER_Ingress.ppp[1].queue.af3xQueue outgoingPacketLengths:vector ETV
attr interpolationmode none
attr recordingmode vector
attr source packetLength(packetPulled)
attr title "outgoing packet lengths"
attr unit b
vector 155 MPLSDynamic.LER_Ingress.ppp[1].queue.af3xQueue outgoingDataRate:vector ETV
attr interpolationmode linear
attr recordingmode vector
attr source throughput(packetPulled)
attr title "outgoing datarate"
attr unit bps
vector 156 MPLSDynamic.LER_Ingress.ppp[1].queue.af3xQueue droppedPacketLengthsQueueOverflow:vector ETV
attr interpolationmode none
attr recordingmode vector
attr source packetLength(packetDropReasonIsQueueOverflow(packetDropped))
attr title "dropped packet lengths: queue overflow"
attr unit b
vector 157 MPLSDynamic.LER_Ingress.ppp[1].queue.af3xQueue flowQueueingTime:vector ETV
attr interpolationmode none
attr recordingmode vector
attr source queueingTime(demuxFlow(packetPulled))
attr title "flow queueing times"
attr unit s
vector 158 MPLSDynamic.LER_Ingress.ppp[1].queue.af3xQueue flowIncomingDataRate:vector ETV
attr interpolationmode linear
attr recordingmode vector
attr source throughput(flowPacketLength(demuxFlow(packetPushStarted)))
attr title "flow specific incoming data rate"
attr unit bps
vector 159 MPLSDynamic.LER_Ingress.ppp[1].queue.af3xQueue flowOutgoingDataRate:vector ETV
attr interpolationmode linear
attr recordingmode vector
attr source throughput(flowPacketLength(demuxFlow(packetPulled)))
attr title "flow specific outgoing data rate"
attr unit bps
vector 160 MPLSDynamic.LER_Ingress.ppp[1].queue.af4xQueue queueLength:vector ETV
attr autoWarmupFilter false
attr interpolationmode sample-hold
attr recordingmode vector
attr source "warmup(atomic(constant0(packetPushEnded) + count(packetPushStarted) - count(packetPulled) - count(packetRemoved) - count(packetDropped)))"
attr title "queue length"
attr unit pk
vector 161 MPLSDynamic.LER_Ingress.ppp[1].queue.af4xQueue queueBitLength:vector ETV
attr autoWarmupFilter false
attr interpolationmode sample-hold
attr recordingmode vector
attr source "warmup(atomic(constant0(packetPushEnded) + sum(packetLength(packetPushStarted)) - sum(packetLength(packetPulled)) - sum(packetLength(packetRemoved)) - sum(packetLength(packetDropped))))"
attr title "queue bit length"
attr unit b
vector 162 MPLSDynamic.LER_Ingress.ppp[1].queue.af4xQueue queueingTime:vector ETV
attr interpolationmode none
attr recordingmode vector
attr source queueingTime(packetPulled)
attr title "queueing times"
attr unit s
vector 163 MPLSDynamic.LER_Ingress.ppp[1].queue.af4xQueue incomingPacketLengths:vector ETV
attr interpolationmode none
attr recordingmode vector
attr source packetLength(packetPushStarted)
attr title "incoming packet lengths"
attr unit b
vector 164 MPLSDynamic.LER_Ingress.ppp[1].queue.af4xQueue incomingDataRate:vector ETV
attr interpolationmode linear
attr recordingmode vector
attr source throughput(packetPushStarted)
attr title "incoming datarate"
attr unit bps
vector 165 MPLSDynamic.LER_Ingress.ppp[1].queue.af4xQueue outgoingPacketLengths:vector ETV
attr interpolationmode none
attr recordingmode vector
attr source packetLength(packetPulled)
attr title "outgoing packet lengths"
attr unit b
vector 166 MPLSDynamic.LER_Ingress.ppp[1].queue.af4xQueue outgoingDataRate:vector ETV
attr interpolationmode linear
attr recordingmode vector
attr source throughput(packetPulled)
attr title "outgoing datarate"
attr unit bps
vector 167 MPLSDynamic.LER_Ingress.ppp[1].queue.af4xQueue droppedPacketLengthsQueueOverflow:vector ETV
attr interpolationmode none
attr recordingmode vector
attr source packetLength(packetDropReasonIsQueueOverflow(packetDropped))
attr title "dropped packet lengths: queue overflow"
attr unit b
vector 168 MPLSDynamic.LER_Ingress.ppp[1].queue.af4xQueue flowQueueingTime:vector ETV
attr interpolationmode none
attr recordingmode vector
attr source queueingTime(demuxFlow(packetPulled))
attr title "flow queueing times"
attr unit s
vector 169 MPLSDynamic.LER_Ingress.ppp[1].queue.af4xQueue flowIncomingDataRate:vector ETV
attr interpolationmode linear
attr recordingmode vector
attr source throughput(flowPacketLength(demuxFlow(packetPushStarted)))
attr title "flow specific incoming data rate"
attr unit bps
vector 170 MPLSDynamic.LER_Ingress.ppp[1].queue.af4xQueue flowOutgoingDataRate:vector ETV
attr interpolationmode linear
attr recordingmode vector
attr source throughput(flowPacketLength(demuxFlow(packetPulled)))
attr title "flow specific outgoing data rate"
attr unit bps
vector 171 MPLSDynamic.LER_Ingress.ppp[1].queue.beQueue queueLength:vector ETV
attr autoWarmupFilter false
attr interpolationmode sample-hold
attr recordingmode vector
attr source "warmup(atomic(constant0(packetPushEnded) + count(packetPushStarted) - count(packetPulled) - count(packetRemoved) - count(packetDropped)))"
attr title "queue length"
attr unit pk
vector 172 MPLSDynamic.LER_Ingress.ppp[1].queue.beQueue queueBitLength:vector ETV
attr autoWarmupFilter false
attr interpolationmode sample-hold
attr recordingmode vector
attr source "warmup(atomic(constant0(packetPushEnded) + sum(packetLength(packetPushStarted)) - sum(packetLength(packetPulled)) - sum(packetLength(packetRemoved)) - sum(packetLength(packetDropped))))"
attr title "queue bit length"
attr unit b
vector 173 MPLSDynamic.LER_Ingress.ppp[1].queue.beQueue queueingTime:vector ETV
attr interpolationmode none
attr recordingmode vector
attr source queueingTime(packetPulled)
attr title "queueing times"
attr unit s
vector 174 MPLSDynamic.LER_Ingress.ppp[1].queue.beQueue incomingPacketLengths:vector ETV
attr interpolationmode none
attr recordingmode vector
attr source packetLength(packetPushStarted)
attr title "incoming packet lengths"
attr unit b
vector 175 MPLSDynamic.LER_Ingress.ppp[1].queue.beQueue incomingDataRate:vector ETV
attr interpolationmode linear
attr recordingmode vector
attr source throughput(packetPushStarted)
attr title "incoming datarate"
attr unit bps
vector 176 MPLSDynamic.LER_Ingress.ppp[1].queue.beQueue outgoingPacketLengths:vector ETV
attr interpolationmode none
attr recordingmode vector
attr source packetLength(packetPulled)
attr title "outgoing packet lengths"
attr unit b
vector 177 MPLSDynamic.LER_Ingress.ppp[1].queue.beQueue outgoingDataRate:vector ETV
attr interpolationmode linear
attr recordingmode vector
attr source throughput(packetPulled)
attr title "outgoing datarate"
attr unit bps
vector 178 MPLSDynamic.LER_Ingress.ppp[1].queue.beQueue droppedPacketLengthsQueueOverflow:vector ETV
attr interpolationmode none
attr recordingmode vector
attr source packetLength(packetDropReasonIsQueueOverflow(packetDropped))
attr title "dropped packet lengths: queue overflow"
attr unit b
vector 179 MPLSDynamic.LER_Ingress.ppp[1].queue.beQueue flowQueueingTime:vector ETV
attr interpolationmode none
attr recordingmode vector
attr source queueingTime(demuxFlow(packetPulled))
attr title "flow queueing times"
attr unit s
vector 180 MPLSDynamic.LER_Ingress.ppp[1].queue.beQueue flowIncomingDataRate:vector ETV
attr interpolationmode linear
attr recordingmode vector
attr source throughput(flowPacketLength(demuxFlow(packetPushStarted)))
attr title "flow specific incoming data rate"
attr unit bps
vector 181 MPLSDynamic.LER_Ingress.ppp[1].queue.beQueue flowOutgoingDataRate:vector ETV
attr interpolationmode linear
attr recordingmode vector
attr source throughput(flowPacketLength(demuxFlow(packetPulled)))
attr title "flow specific outgoing data rate"
attr unit bps
vector 182 MPLSDynamic.LER_Ingress.ppp[1].queue.wrr packetLengths:vector ETV
attr interpolationmode none
attr recordingmode vector
attr source packetLength(packetPulled)
attr title "packet lengths"
attr unit b
vector 183 MPLSDynamic.LER_Ingress.ppp[1].queue.wrr dataRate:vector ETV
attr interpolationmode linear
attr recordingmode vector
attr source throughput(packetPulled)
attr title "data rate"
attr unit bps
vector 184 MPLSDynamic.LER_Ingress.ppp[1].queue.priority packetLengths:vector ETV
attr interpolationmode none
attr recordingmode vector
attr source packetLength(packetPulled)
attr title "packet lengths"
attr unit b
vector 185 MPLSDynamic.LER_Ingress.ppp[1].queue.priority dataRate:vector ETV
attr interpolationmode linear
attr recordingmode vector
attr source throughput(packetPulled)
attr title "data rate"
attr unit bps
vector 186 MPLSDynamic.LER_Ingress.ppp[1].queue queueLength:vector ETV
attr autoWarmupFilter false
attr interpolationmode sample-hold
attr recordingmode vector
attr source "warmup(atomic(constant0(localSignal(packetPushEnded)) + count(localSignal(packetPushStarted)) - count(localSignal(packetPulled)) - count(localSignal(packetRemoved)) - count(localSignal(packetDropped))))"
attr title "queue length"
attr unit pk
vector 187 MPLSDynamic.LER_Ingress.ppp[1].queue queueBitLength:vector ETV
attr autoWarmupFilter false
attr interpolationmode sample-hold
attr recordingmode vector
attr source "warmup(atomic(constant0(localSignal(packetPushEnded)) + sum(packetLength(localSignal(packetPushStarted))) - sum(packetLength(localSignal(packetPulled))) - sum(packetLength(localSignal(packetRemoved))) - sum(packetLength(localSignal(packetDropped)))))"
attr title "queue bit length"
attr unit b
vector 188 MPLSDynamic.LER_Ingress.ppp[1].queue queueingTime:vector ETV
attr interpolationmode none
attr recordingmode vector
attr source queueingTime(localSignal(packetPulled))
attr title "queueing times"
attr unit s
vector 189 MPLSDynamic.LER_Ingress.ppp[1].queue incomingPacketLengths:vector ETV
attr interpolationmode none
attr recordingmode vector
attr source packetLength(localSignal(packetPushStarted))
attr title "incoming packet lengths"
attr unit b
vector 190 MPLSDynamic.LER_Ingress.ppp[1].queue incomingDataRate:vector ETV
attr interpolationmode linear
attr recordingmode vector
attr source throughput(localSignal(packetPushStarted))
attr title "incoming datarate"
attr unit bps
vector 191 MPLSDynamic.LER_Ingress.ppp[1].queue outgoingPacketLengths:vector ETV
attr interpolationmode none
attr recordingmode vector
attr source packetLength(localSignal(packetPulled))
attr title "outgoing packet lengths"
attr unit b
vector 192 MPLSDynamic.LER_Ingress.ppp[1].queue outgoingDataRate:vector ETV
attr interpolationmode linear
attr recordingmode vector
attr source throughput(localSignal(packetPulled))
attr title "outgoing datarate"
attr unit bps
vector 193 MPLSDynamic.LER_Ingress.ppp[1].queue droppedPacketLengthsQueueOverflow:vector ETV
attr interpolationmode none
attr recordingmode vector
attr source packetLength(packetDropReasonIsQueueOverflow(localSignal(packetDropped)))
attr title "dropped packet lengths: queue overflow"
attr unit b
vector 194 MPLSDynamic.LER_Ingress.ppp[1].queue flowQueueingTime:vector ETV
attr interpolationmode none
attr recordingmode vector
attr source queueingTime(demuxFlow(localSignal(packetPulled)))
attr title "flow queueing times"
attr unit s
vector 195 MPLSDynamic.LER_Ingress.ppp[1].queue flowIncomingDataRate:vector ETV
attr interpolationmode linear
attr recordingmode vector
attr source throughput(flowPacketLength(demuxFlow(localSignal(packetPushStarted))))
attr title "flow specific incoming data rate"
attr unit bps
vector 196 MPLSDynamic.LER_Ingress.ppp[1].queue flowOutgoingDataRate:vector ETV
attr interpolationmode linear
attr recordingmode vector
attr source throughput(flowPacketLength(demuxFlow(localSignal(packetPulled))))
attr title "flow specific outgoing data rate"
attr unit bps
vector 197 MPLSDynamic.LER_Ingress.ppp[1].ppp transmissionState:vector ETV
attr interpolationmode sample-hold
attr recordingmode vector
attr source transmissionStateChanged
attr title "tx state"
vector 198 MPLSDynamic.LER_Ingress.ppp[1].ppp txPk:vector(packetBytes) ETV
attr interpolationmode none
attr recordingmode vector(packetBytes)
attr source packetSentToLower
attr title "packets transmitted, packetBytes"
vector 199 MPLSDynamic.LER_Ingress.ppp[1].ppp rxPkOk:vector(packetBytes) ETV
attr interpolationmode none
attr recordingmode vector(packetBytes)
attr source rxPkOk
attr title "packets received OK, packetBytes"
vector 200 MPLSDynamic.LER_Ingress.ppp[1].ppp packetDropIncorrectlyReceived:vector(packetBytes) ETV
attr interpolationmode none
attr recordingmode vector(packetBytes)
attr source packetDropReasonIsIncorrectlyReceived(packetDropped)
attr title "packet drop: incorrectly received, packetBytes"
vector 201 MPLSDynamic.LER_Ingress.ppp[1].ppp packetDropInterfaceDown:vector(packetBytes) ETV
attr interpolationmode none
attr recordingmode vector(packetBytes)
attr source packetDropReasonIsInterfaceDown(packetDropped)
attr title "packet drop: interface down, packetBytes"
vector 202 MPLSDynamic.LER_Ingress.ppp[1].ppp rcvdPkFromHl:vector(packetBytes) ETV
attr interpolationmode none
attr recordingmode vector(packetBytes)
attr source packetReceivedFromUpper
attr title "packets received from higher layer, packetBytes"
vector 203 MPLSDynamic.LER_Ingress.ppp[1].ppp passedUpPk:vector(packetBytes) ETV
attr interpolationmode none
attr recordingmode vector(packetBytes)
attr source packetSentToUpper
attr title "packets passed to higher layer, packetBytes"
vector 204 MPLSDynamic.LER_Ingress.ppp[1] packetDropInterfaceDown:vector(packetBytes) ETV
attr interpolationmode none
attr recordingmode vector(packetBytes)
attr source packetDropReasonIsInterfaceDown(packetDropped)
attr title "packet drops: interface down, packetBytes"
vector 205 MPLSDynamic.LER_Ingress.ppp[1] packetDropNoCarrier:vector(packetBytes) ETV
attr interpolationmode none
attr recordingmode vector(packetBytes)
attr source packetDropReasonIsNoCarrier(packetDropped)
attr title "packet drops: no carrier, packetBytes"
vector 206 MPLSDynamic.LER_Ingress.ppp[2].ingressTC.classifier packetLengths:vector ETV
attr interpolationmode none
attr recordingmode vector
attr source packetLength(packetPushed)
attr title "packet lengths"
attr unit b
vector 207 MPLSDynamic.LER_Ingress.ppp[2].ingressTC.classifier dataRate:vector ETV
attr interpolationmode linear
attr recordingmode vector
attr source throughput(packetPushed)
attr title "data rate"
attr unit bps
vector 208 MPLSDynamic.LER_Ingress.ppp[2].ingressTC.classifier pkClass:vector ETV
attr interpolationmode none
attr recordingmode vector
attr source pkClass
attr title "packet class"
vector 209 MPLSDynamic.LER_Ingress.ppp[2].ingressTC.marker packetMarked:vector(packetBytes) ETV
attr interpolationmode none
attr recordingmode vector(packetBytes)
attr source packetMarked
attr title "packets marked, packetBytes"
vector 210 MPLSDynamic.LER_Ingress.ppp[2].queue.classifier packetLengths:vector ETV
attr interpolationmode none
attr recordingmode vector
attr source packetLength(packetPushed)
attr title "packet lengths"
attr unit b
vector 211 MPLSDynamic.LER_Ingress.ppp[2].queue.classifier dataRate:vector ETV
attr interpolationmode linear
attr recordingmode vector
attr source throughput(packetPushed)
attr title "data rate"
attr unit bps
vector 212 MPLSDynamic.LER_Ingress.ppp[2].queue.classifier pkClass:vector ETV
attr interpolationmode none
attr recordingmode vector
attr source pkClass
attr title "packet class"
vector 213 MPLSDynamic.LER_Ingress.ppp[2].queue.efQueue queueLength:vector ETV
attr autoWarmupFilter false
attr interpolationmode sample-hold
attr recordingmode vector
attr source "warmup(atomic(constant0(packetPushEnded) + count(packetPushStarted) - count(packetPulled) - count(packetRemoved) - count(packetDropped)))"
attr title "queue length"
attr unit pk
vector 214 MPLSDynamic.LER_Ingress.ppp[2].queue.efQueue queueBitLength:vector ETV
attr autoWarmupFilter false
attr interpolationmode sample-hold
attr recordingmode vector
attr source "warmup(atomic(constant0(packetPushEnded) + sum(packetLength(packetPushStarted)) - sum(packetLength(packetPulled)) - sum(packetLength(packetRemoved)) - sum(packetLength(packetDropped))))"
attr title "queue bit length"
attr unit b
vector 215 MPLSDynamic.LER_Ingress.ppp[2].queue.efQueue queueingTime:vector ETV
attr interpolationmode none
attr recordingmode vector
attr source queueingTime(packetPulled)
attr title "queueing times"
attr unit s
vector 216 MPLSDynamic.LER_Ingress.ppp[2].queue.efQueue incomingPacketLengths:vector ETV
attr interpolationmode none
attr recordingmode vector
attr source packetLength(packetPushStarted)
attr title "incoming packet lengths"
attr unit b
vector 217 MPLSDynamic.LER_Ingress.ppp[2].queue.efQueue incomingDataRate:vector ETV
attr interpolationmode linear
attr recordingmode vector
attr source throughput(packetPushStarted)
attr title "incoming datarate"
attr unit bps
vector 218 MPLSDynamic.LER_Ingress.ppp[2].queue.efQueue outgoingPacketLengths:vector ETV
attr interpolationmode none
attr recordingmode vector
attr source packetLength(packetPulled)
attr title "outgoing packet lengths"
attr unit b
vector 219 MPLSDynamic.LER_Ingress.ppp[2].queue.efQueue outgoingDataRate:vector ETV
attr interpolationmode linear
attr recordingmode vector
attr source throughput(packetPulled)
attr title "outgoing datarate"
attr unit bps
vector 220 MPLSDynamic.LER_Ingress.ppp[2].queue.efQueue droppedPacketLengthsQueueOverflow:vector ETV
attr interpolationmode none
attr recordingmode vector
attr source packetLength(packetDropReasonIsQueueOverflow(packetDropped))
attr title "dropped packet lengths: queue overflow"
attr unit b
vector 221 MPLSDynamic.LER_Ingress.ppp[2].queue.efQueue flowQueueingTime:vector ETV
attr interpolationmode none
attr recordingmode vector
attr source queueingTime(demuxFlow(packetPulled))
attr title "flow queueing times"
attr unit s
vector 222 MPLSDynamic.LER_Ingress.ppp[2].queue.efQueue flowIncomingDataRate:vector ETV
attr interpolationmode linear
attr recordingmode vector
attr source throughput(flowPacketLength(demuxFlow(packetPushStarted)))
attr title "flow specific incoming data rate"
attr unit bps
vector 223 MPLSDynamic.LER_Ingress.ppp[2].queue.efQueue flowOutgoingDataRate:vector ETV
attr interpolationmode linear
attr recordingmode vector
attr source throughput(flowPacketLength(demuxFlow(packetPulled)))
attr title "flow specific outgoing data rate"
attr unit bps
vector 224 MPLSDynamic.LER_Ingress.ppp[2].queue.af1xQueue queueLength:vector ETV
attr autoWarmupFilter false
attr interpolationmode sample-hold
attr recordingmode vector
attr source "warmup(atomic(constant0(packetPushEnded) + count(packetPushStarted) - count(packetPulled) - count(packetRemoved) - count(packetDropped)))"
attr title "queue length"
attr unit pk
vector 225 MPLSDynamic.LER_Ingress.ppp[2].queue.af1xQueue queueBitLength:vector ETV
attr autoWarmupFilter false
attr interpolationmode sample-hold
attr recordingmode vector
attr source "warmup(atomic(constant0(packetPushEnded) + sum(packetLength(packetPushStarted)) - sum(packetLength(packetPulled)) - sum(packetLength(packetRemoved)) - sum(packetLength(packetDropped))))"
attr title "queue bit length"
attr unit b
vector 226 MPLSDynamic.LER_Ingress.ppp[2].queue.af1xQueue queueingTime:vector ETV
attr interpolationmode none
attr recordingmode vector
attr source queueingTime(packetPulled)
attr title "queueing times"
attr unit s
vector 227 MPLSDynamic.LER_Ingress.ppp[2].queue.af1xQueue incomingPacketLengths:vector ETV
attr interpolationmode none
attr recordingmode vector
attr source packetLength(packetPushStarted)
attr title "incoming packet lengths"
attr unit b
vector 228 MPLSDynamic.LER_Ingress.ppp[2].queue.af1xQueue incomingDataRate:vector ETV
attr interpolationmode linear
attr recordingmode vector
attr source throughput(packetPushStarted)
attr title "incoming datarate"
attr unit bps
vector 229 MPLSDynamic.LER_Ingress.ppp[2].queue.af1xQueue outgoingPacketLengths:vector ETV
attr interpolationmode none
attr recordingmode vector
attr source packetLength(packetPulled)
attr title "outgoing packet lengths"
attr unit b
vector 230 MPLSDynamic.LER_Ingress.ppp[2].queue.af1xQueue outgoingDataRate:vector ETV
attr interpolationmode linear
attr recordingmode vector
attr source throughput(packetPulled)
attr title "outgoing datarate"
attr unit bps
vector 231 MPLSDynamic.LER_Ingress.ppp[2].queue.af1xQueue droppedPacketLengthsQueueOverflow:vector ETV
attr interpolationmode none
attr recordingmode vector
attr source packetLength(packetDropReasonIsQueueOverflow(packetDropped))
attr title "dropped packet lengths: queue overflow"
attr unit b
vector 232 MPLSDynamic.LER_Ingress.ppp[2].queue.af1xQueue flowQueueingTime:vector ETV
attr interpolationmode none
attr recordingmode vector
attr source queueingTime(demuxFlow(packetPulled))
attr title "flow queueing times"
attr unit s
vector 233 MPLSDynamic.LER_Ingress.ppp[2].queue.af1xQueue flowIncomingDataRate:vector ETV
attr interpolationmode linear
attr recordingmode vector
attr source throughput(flowPacketLength(demuxFlow(packetPushStarted)))
attr title "flow specific incoming data rate"
attr unit bps
vector 234 MPLSDynamic.LER_Ingress.ppp[2].queue.af1xQueue flowOutgoingDataRate:vector ETV
attr interpolationmode linear
attr recordingmode vector
attr source throughput(flowPacketLength(demuxFlow(packetPulled)))
attr title "flow specific outgoing data rate"
attr unit bps
vector 235 MPLSDynamic.LER_Ingress.ppp[2].queue.af2xQueue queueLength:vector ETV
attr autoWarmupFilter false
attr interpolationmode sample-hold
attr recordingmode vector
attr source "warmup(atomic(constant0(packetPushEnded) + count(packetPushStarted) - count(packetPulled) - count(packetRemoved) - count(packetDropped)))"
attr title "queue length"
attr unit pk
vector 236 MPLSDynamic.LER_Ingress.ppp[2].queue.af2xQueue queueBitLength:vector ETV
attr autoWarmupFilter false
attr interpolationmode sample-hold
attr recordingmode vector
attr source "warmup(atomic(constant0(packetPushEnded) + sum(packetLength(packetPushStarted)) - sum(packetLength(packetPulled)) - sum(packetLength(packetRemoved)) - sum(packetLength(packetDropped))))"
attr title "queue bit length"
attr unit b
vector 237 MPLSDynamic.LER_Ingress.ppp[2].queue.af2xQueue queueingTime:vector ETV
attr interpolationmode none
attr recordingmode vector
attr source queueingTime(packetPulled)
attr title "queueing times"
attr unit s
vector 238 MPLSDynamic.LER_Ingress.ppp[2].queue.af2xQueue incomingPacketLengths:vector ETV
attr interpolationmode none
attr recordingmode vector
attr source packetLength(packetPushStarted)
attr title "incoming packet lengths"
attr unit b
vector 239 MPLSDynamic.LER_Ingress.ppp[2].queue.af2xQueue incomingDataRate:vector ETV
attr interpolationmode linear
attr recordingmode vector
attr source throughput(packetPushStarted)
attr title "incoming datarate"
attr unit bps
vector 240 MPLSDynamic.LER_Ingress.ppp[2].queue.af2xQueue outgoingPacketLengths:vector ETV
attr interpolationmode none
attr recordingmode vector
attr source packetLength(packetPulled)
attr title "outgoing packet lengths"
attr unit b
vector 241 MPLSDynamic.LER_Ingress.ppp[2].queue.af2xQueue outgoingDataRate:vector ETV
attr interpolationmode linear
attr recordingmode vector
attr source throughput(packetPulled)
attr title "outgoing datarate"
attr unit bps
vector 242 MPLSDynamic.LER_Ingress.ppp[2].queue.af2xQueue droppedPacketLengthsQueueOverflow:vector ETV
attr interpolationmode none
attr recordingmode vector
attr source packetLength(packetDropReasonIsQueueOverflow(packetDropped))
attr title "dropped packet lengths: queue overflow"
attr unit b
vector 243 MPLSDynamic.LER_Ingress.ppp[2].queue.af2xQueue flowQueueingTime:vector ETV
attr interpolationmode none
attr recordingmode vector
attr source queueingTime(demuxFlow(packetPulled))
attr title "flow queueing times"
attr unit s
vector 244 MPLSDynamic.LER_Ingress.ppp[2].queue.af2xQueue flowIncomingDataRate:vector ETV
attr interpolationmode linear
attr recordingmode vector
attr source throughput(flowPacketLength(demuxFlow(packetPushStarted)))
attr title "flow specific incoming data rate"
attr unit bps
vector 245 MPLSDynamic.LER_Ingress.ppp[2].queue.af2xQueue flowOutgoingDataRate:vector ETV
attr interpolationmode linear
attr recordingmode vector
attr source throughput(flowPacketLength(demuxFlow(packetPulled)))
attr title "flow specific outgoing data rate"
attr unit bps
vector 246 MPLSDynamic.LER_Ingress.ppp[2].queue.af3xQueue queueLength:vector ETV
attr autoWarmupFilter false
attr interpolationmode sample-hold
attr recordingmode vector
attr source "warmup(atomic(constant0(packetPushEnded) + count(packetPushStarted) - count(packetPulled) - count(packetRemoved) - count(packetDropped)))"
attr title "queue length"
attr unit pk
vector 247 MPLSDynamic.LER_Ingress.ppp[2].queue.af3xQueue queueBitLength:vector ETV
attr autoWarmupFilter false
attr interpolationmode sample-hold
attr recordingmode vector
attr source "warmup(atomic(constant0(packetPushEnded) + sum(packetLength(packetPushStarted)) - sum(packetLength(packetPulled)) - sum(packetLength(packetRemoved)) - sum(packetLength(packetDropped))))"
attr title "queue bit length"
attr unit b
vector 248 MPLSDynamic.LER_Ingress.ppp[2].queue.af3xQueue queueingTime:vector ETV
attr interpolationmode none
attr recordingmode vector
attr source queueingTime(packetPulled)
attr title "queueing times"
attr unit s
vector 249 MPLSDynamic.LER_Ingress.ppp[2].queue.af3xQueue incomingPacketLengths:vector ETV
attr interpolationmode none
attr recordingmode vector
attr source packetLength(packetPushStarted)
attr title "incoming packet lengths"
attr unit b
vector 250 MPLSDynamic.LER_Ingress.ppp[2].queue.af3xQueue incomingDataRate:vector ETV
attr interpolationmode linear
attr recordingmode vector
attr source throughput(packetPushStarted)
attr title "incoming datarate"
attr unit bps
vector 251 MPLSDynamic.LER_Ingress.ppp[2].queue.af3xQueue outgoingPacketLengths:vector ETV
attr interpolationmode none
attr recordingmode vector
attr source packetLength(packetPulled)
attr title "outgoing packet lengths"
attr unit b
vector 252 MPLSDynamic.LER_Ingress.ppp[2].queue.af3xQueue outgoingDataRate:vector ETV
attr interpolationmode linear
attr recordingmode vector
attr source throughput(packetPulled)
attr title "outgoing datarate"
attr unit bps
vector 253 MPLSDynamic.LER_Ingress.ppp[2].queue.af3xQueue droppedPacketLengthsQueueOverflow:vector ETV
attr interpolationmode none
attr recordingmode vector
attr source packetLength(packetDropReasonIsQueueOverflow(packetDropped))
attr title "dropped packet lengths: queue overflow"
attr unit b
vector 254 MPLSDynamic.LER_Ingress.ppp[2].queue.af3xQueue flowQueueingTime:vector ETV
attr interpolationmode none
attr recordingmode vector
attr source queueingTime(demuxFlow(packetPulled))
attr title "flow queueing times"
attr unit s
vector 255 MPLSDynamic.LER_Ingress.ppp[2].queue.af3xQueue flowIncomingDataRate:vector ETV
attr interpolationmode linear
attr recordingmode vector
attr source throughput(flowPacketLength(demuxFlow(packetPushStarted)))
attr title "flow specific incoming data rate"
attr unit bps
vector 256 MPLSDynamic.LER_Ingress.ppp[2].queue.af3xQueue flowOutgoingDataRate:vector ETV
attr interpolationmode linear
attr recordingmode vector
attr source throughput(flowPacketLength(demuxFlow(packetPulled)))
attr title "flow specific outgoing data rate"
attr unit bps
vector 257 MPLSDynamic.LER_Ingress.ppp[2].queue.af4xQueue queueLength:vector ETV
attr autoWarmupFilter false
attr interpolationmode sample-hold
attr recordingmode vector
attr source "warmup(atomic(constant0(packetPushEnded) + count(packetPushStarted) - count(packetPulled) - count(packetRemoved) - count(packetDropped)))"
attr title "queue length"
attr unit pk
vector 258 MPLSDynamic.LER_Ingress.ppp[2].queue.af4xQueue queueBitLength:vector ETV
attr autoWarmupFilter false
attr interpolationmode sample-hold
attr recordingmode vector
attr source "warmup(atomic(constant0(packetPushEnded) + sum(packetLength(packetPushStarted)) - sum(packetLength(packetPulled)) - sum(packetLength(packetRemoved)) - sum(packetLength(packetDropped))))"
attr title "queue bit length"
attr unit b
vector 259 MPLSDynamic.LER_Ingress.ppp[2].queue.af4xQueue queueingTime:vector ETV
attr interpolationmode none
attr recordingmode vector
attr source queueingTime(packetPulled)
attr title "queueing times"
attr unit s
vector 260 MPLSDynamic.LER_Ingress.ppp[2].queue.af4xQueue incomingPacketLengths:vector ETV
attr interpolationmode none
attr recordingmode vector
attr source packetLength(packetPushStarted)
attr title "incoming packet lengths"
attr unit b
vector 261 MPLSDynamic.LER_Ingress.ppp[2].queue.af4xQueue incomingDataRate:vector ETV
attr interpolationmode linear
attr recordingmode vector
attr source throughput(packetPushStarted)
attr title "incoming datarate"
attr unit bps
vector 262 MPLSDynamic.LER_Ingress.ppp[2].queue.af4xQueue outgoingPacketLengths:vector ETV
attr interpolationmode none
attr recordingmode vector
attr source packetLength(packetPulled)
attr title "outgoing packet lengths"
attr unit b
vector 263 MPLSDynamic.LER_Ingress.ppp[2].queue.af4xQueue outgoingDataRate:vector ETV
attr interpolationmode linear
attr recordingmode vector
attr source throughput(packetPulled)
attr title "outgoing datarate"
attr unit bps
vector 264 MPLSDynamic.LER_Ingress.ppp[2].queue.af4xQueue droppedPacketLengthsQueueOverflow:vector ETV
attr interpolationmode none
attr recordingmode vector
attr source packetLength(packetDropReasonIsQueueOverflow(packetDropped))
attr title "dropped packet lengths: queue overflow"
attr unit b
vector 265 MPLSDynamic.LER_Ingress.ppp[2].queue.af4xQueue flowQueueingTime:vector ETV
attr interpolationmode none
attr recordingmode vector
attr source queueingTime(demuxFlow(packetPulled))
attr title "flow queueing times"
attr unit s
vector 266 MPLSDynamic.LER_Ingress.ppp[2].queue.af4xQueue flowIncomingDataRate:vector ETV
attr interpolationmode linear
attr recordingmode vector
attr source throughput(flowPacketLength(demuxFlow(packetPushStarted)))
attr title "flow specific incoming data rate"
attr unit bps
vector 267 MPLSDynamic.LER_Ingress.ppp[2].queue.af4xQueue flowOutgoingDataRate:vector ETV
attr interpolationmode linear
attr recordingmode vector
attr source throughput(flowPacketLength(demuxFlow(packetPulled)))
attr title "flow specific outgoing data rate"
attr unit bps
vector 268 MPLSDynamic.LER_Ingress.ppp[2].queue.beQueue queueLength:vector ETV
attr autoWarmupFilter false
attr interpolationmode sample-hold
attr recordingmode vector
attr source "warmup(atomic(constant0(packetPushEnded) + count(packetPushStarted) - count(packetPulled) - count(packetRemoved) - count(packetDropped)))"
attr title "queue length"
attr unit pk
vector 269 MPLSDynamic.LER_Ingress.ppp[2].queue.beQueue queueBitLength:vector ETV
attr autoWarmupFilter false
attr interpolationmode sample-hold
attr recordingmode vector
attr source "warmup(atomic(constant0(packetPushEnded) + sum(packetLength(packetPushStarted)) - sum(packetLength(packetPulled)) - sum(packetLength(packetRemoved)) - sum(packetLength(packetDropped))))"
attr title "queue bit length"
attr unit b
vector 270 MPLSDynamic.LER_Ingress.ppp[2].queue.beQueue queueingTime:vector ETV
attr interpolationmode none
attr recordingmode vector
attr source queueingTime(packetPulled)
attr title "queueing times"
attr unit s
vector 271 MPLSDynamic.LER_Ingress.ppp[2].queue.beQueue incomingPacketLengths:vector ETV
attr interpolationmode none
attr recordingmode vector
attr source packetLength(packetPushStarted)
attr title "incoming packet lengths"
attr unit b
vector 272 MPLSDynamic.LER_Ingress.ppp[2].queue.beQueue incomingDataRate:vector ETV
attr interpolationmode linear
attr recordingmode vector
attr source throughput(packetPushStarted)
attr title "incoming datarate"
attr unit bps
vector 273 MPLSDynamic.LER_Ingress.ppp[2].queue.beQueue outgoingPacketLengths:vector ETV
attr interpolationmode none
attr recordingmode vector
attr source packetLength(packetPulled)
attr title "outgoing packet lengths"
attr unit b
vector 274 MPLSDynamic.LER_Ingress.ppp[2].queue.beQueue outgoingDataRate:vector ETV
attr interpolationmode linear
attr recordingmode vector
attr source throughput(packetPulled)
attr title "outgoing datarate"
attr unit bps
vector 275 MPLSDynamic.LER_Ingress.ppp[2].queue.beQueue droppedPacketLengthsQueueOverflow:vector ETV
attr interpolationmode none
attr recordingmode vector
attr source packetLength(packetDropReasonIsQueueOverflow(packetDropped))
attr title "dropped packet lengths: queue overflow"
attr unit b
vector 276 MPLSDynamic.LER_Ingress.ppp[2].queue.beQueue flowQueueingTime:vector ETV
attr interpolationmode none
attr recordingmode vector
attr source queueingTime(demuxFlow(packetPulled))
attr title "flow queueing times"
attr unit s
vector 277 MPLSDynamic.LER_Ingress.ppp[2].queue.beQueue flowIncomingDataRate:vector ETV
attr interpolationmode linear
attr recordingmode vector
[...]
979	52000864 4209 661754 785613 26.395874406848 31.395946086848 135 208 208 28080 5840640
980	52005073 1888 661754 784446 21.4 31.3 100 0 93600 187200 17521920000
985	52006961 7877 661754 785614 26.395874406848 31.395946350848 270 0 1 135 135
986	52014838 4074 661754 785613 26.395874406848 31.395946086848 135 33 33 4455 147015
990	52018912 4074 661754 785613 26.395874406848 31.395946086848 135 26 26 3510 91260
996	52022986 109143 628100 835112 25.090230798 33.337318153914 4031 0 0 0 0
997	52132129 120559 628100 835112 25.090230798 33.337318153914 4031 21 1428 4926937 6382863053
1000	52252688 2688 629303 835115 25.137318153914 33.337318153914 84 -1 -1 -84 84
1056	52255376 2604 629303 835115 25.137318153914 33.337318153914 84 0 0 0 0
1057	52257980 2604 629303 835115 25.137318153914 33.337318153914 84 0 0 0 0
1058	52260584 2604 629303 835115 25.137318153914 33.337318153914 84 0 0 0 0
1059	52263188 2772 629303 835115 25.137318153914 33.337318153914 84 168 736 14680 2884288
1060	52265960 1893 629303 835115 25.1 33.3 83 1680 9040 146800 313158400
1061	52267853 2772 629303 835115 25.137318153914 33.337318153914 84 168 736 14680 2884288
1062	52270625 1893 629303 835115 25.1 33.3 83 1680 9040 146800 313158400
1067	52272518 2772 629303 835115 25.137318153914 33.337318153914 84 168 736 14680 2884288
1068	52275290 1893 629303 835115 25.1 33.3 83 1680 9040 146800 313158400
1069	52277183 2772 629303 835115 25.137318153914 33.337318153914 84 168 736 14680 2884288
1070	52279955 1893 629303 835115 25.1 33.3 83 1680 9040 146800 313158400
1071	52281848 2856 629303 835115 25.137318153914 33.337318153914 84 -357 -274 -26502 8410766
1072	52284704 3024 629303 835115 25.137318153914 33.337318153914 84 -90896 -76384 -7019512 588146799936
1073	52287728 2604 629303 835115 25.137318153914 33.337318153914 84 0 0 0 0
1076	52290332 2772 629303 835115 25.137318153914 33.337318153914 84 168 736 14680 2884288
1077	52293104 1893 629303 835115 25.1 33.3 83 1680 9040 146800 313158400
1082	52294997 5208 629303 835118 25.137318153914 33.337320393914 168 0 1 84 84
1083	52300205 2688 629303 835115 25.137318153914 33.337318153914 84 28 99 2423 74873
1084	52302893 124590 628098 835110 25.090230798 33.337318153914 4031 28 1435 4955154 6452037690
1087	52427483 2688 629303 835115 25.137318153914 33.337318153914 84 21 92 1835 45067
1088	52430171 124590 628098 835110 25.090230798 33.337318153914 4031 21 1428 4926937 6382863053
1093	52554761 70083 628273 836088 25.09794120542 33.376297198 2498 0 0 0 0
1094	52624844 77099 628273 836088 25.09794120542 33.376297198 2498 21 1428 3016120 3906525812
1097	52701943 2574 630578 833831 25.18789640542 33.28789640542 83 -1 -1 -83 83
1153	52704517 2491 630578 833831 25.18789640542 33.28789640542 83 0 0 0 0
1154	52707008 2491 630578 833831 25.18789640542 33.28789640542 83 0 0 0 0
1155	52709499 2491 630578 833831 25.18789640542 33.28789640542 83 0 0 0 0
1156	52711990 2657 630578 833831 25.18789640542 33.28789640542 83 168 736 14512 2856064
1157	52714647 1870 630578 833831 25.1 33.2 82 1680 9040 145120 310336000
1158	52716517 2657 630578 833831 25.18789640542 33.28789640542 83 168 736 14512 2856064
1159	52719174 1870 630578 833831 25.1 33.2 82 1680 9040 145120 310336000
1164	52721044 2657 630578 833831 25.18789640542 33.28789640542 83 168 736 14512 2856064
1165	52723701 1870 630578 833831 25.1 33.2 82 1680 9040 145120 310336000
1166	52725571 2657 630578 833831 25.18789640542 33.28789640542 83 168 736 14512 2856064
1167	52728228 1870 630578 833831 25.1 33.2 82 1680 9040 145120 310336000
1168	52730098 2740 630578 833831 25.18789640542 33.28789640542 83 -359 -277 -26394 8440934
1169	52732838 2906 630578 833831 25.18789640542 33.28789640542 83 -98112 -83768 -7542056 686837372224
1170	52735744 2491 630578 833831 25.18789640542 33.28789640542 83 0 0 0 0
1173	52738235 2657 630578 833831 25.18789640542 33.28789640542 83 168 736 14512 2856064
1174	52740892 1870 630578 833831 25.1 33.2 82 1680 9040 145120 310336000
1179	52742762 4982 630578 833832 25.18789640542 33.28791880542 166 0 1 83 83
1180	52747744 2574 630578 833831 25.18789640542 33.28789640542 83 28 99 2395 74089
1181	52750318 77099 628272 836087 25.09794120542 33.376297198 2498 28 1435 3033606 3948873894
1184	52827417 2574 630578 833831 25.18789640542 33.28789640542 83 21 92 1814 44626
1185	52829991 77099 628272 836087 25.09794120542 33.376297198 2498 21 1428 3016120 3906525812
1398	52907090 128 755154 758499 30.057551919688 30.357551919688 4 21 21 84 1764
1408	52907218 111782 628092 754450 25.090115998 29.998115998 3986 0 0 0 0
1409	53019000 123142 628092 754450 25.090115998 29.998115998 3986 21 1428 4923758 6380701186
1412	53142142 1568 629814 753408 25.157551919688 29.957551919688 49 -1 -1 -49 49
1468	53143710 1519 629814 753408 25.157551919688 29.957551919688 49 0 0 0 0
1469	53145229 1519 629814 753408 25.157551919688 29.957551919688 49 0 0 0 0
1470	53146748 1519 629814 753408 25.157551919688 29.957551919688 49 0 0 0 0
1471	53148267 1617 629814 753408 25.157551919688 29.957551919688 49 168 168 8232 1382976
1472	53149884 1119 629814 753408 25.1 29.9 49 1680 1680 82320 138297600
1473	53151003 1617 629814 753408 25.157551919688 29.957551919688 49 168 168 8232 1382976
1474	53152620 1119 629814 753408 25.1 29.9 49 1680 1680 82320 138297600
1479	53153739 1617 629814 753408 25.157551919688 29.957551919688 49 168 168 8232 1382976
1480	53155356 1119 629814 753408 25.1 29.9 49 1680 1680 82320 138297600
1481	53156475 1617 629814 753408 25.157551919688 29.957551919688 49 168 168 8232 1382976
1482	53158092 1119 629814 753408 25.1 29.9 49 1680 1680 82320 138297600
1483	53159211 1666 629814 753408 25.157551919688 29.957551919688 49 -312 -264 -14112 4074056
1484	53160877 1764 629814 753408 25.157551919688 29.957551919688 49 -71328 -63264 -3297504 222185424384
1485	53162641 1519 629814 753408 25.157551919688 29.957551919688 49 0 0 0 0
1488	53164160 1617 629814 753408 25.157551919688 29.957551919688 49 168 168 8232 1382976
1489	53165777 1119 629814 753408 25.1 29.9 49 1680 1680 82320 138297600
1494	53166896 3038 629814 753409 25.157551919688 29.957554159688 98 0 1 49 49
1495	53169934 1568 629814 753408 25.157551919688 29.957551919688 49 28 28 1372 38416
1496	53171502 123142 628091 754448 25.090115998 29.998115998 3986 28 1435 4951660 6449829112
1499	53294644 1568 629814 753408 25.157551919688 29.957551919688 49 21 21 1029 21609
1500	53296212 123142 628091 754448 25.090115998 29.998115998 3986 21 1428 4923758 6380701186
1505	53419354 2604 629351 835158 25.139320393914 33.339320393914 84 0 0 0 0
1506	53421958 2688 629351 835158 25.139320393914 33.339320393914 84 21 92 1835 45067
1509	53424646 113248 628096 835057 25.090115998 33.335315913914 4030 -1 0 -102 102
1510	53537894 109984 628096 754454 25.090115998 29.998115998 3928 0 0 0 0
1511	53647878 109984 628096 754454 25.090115998 29.998115998 3928 0 0 0 0
1512	53757862 109984 628096 754454 25.090115998 29.998115998 3928 0 0 0 0
1513	53867846 124223 628096 754454 25.090115998 29.998115998 3928 6624 11424 39374272 408357142528
1514	53992069 1266 628362 751956 25.1 29.9 49 8019200 8019200 392940800 3.15107086336e+15
1515	53993335 124223 628096 754454 25.090115998 29.998115998 3928 6624 11424 39374272 408357142528
1516	54117558 1266 628362 751956 25.1 29.9 49 8019200 8019200 392940800 3.15107086336e+15
1565	54118824 3162 629257 835057 25.135315913914 33.335315913914 102 0 0 0 0
1566	54121986 3162 629257 835057 25.135315913914 33.335315913914 102 0 0 0 0
1567	54125148 3162 629257 835057 25.135315913914 33.335315913914 102 0 0 0 0
1568	54128310 3366 629257 835057 25.135315913914 33.335315913914 102 168 840 29800 15585088
1569	54131676 1895 629257 835057 25.1 33.3 83 1680 77280 298000 12251910400
1570	54133571 3366 629257 835057 25.135315913914 33.335315913914 102 168 840 29800 15585088
1571	54136937 1895 629257 835057 25.1 33.3 83 1680 77280 298000 12251910400
1576	54138832 3366 629257 835057 25.135315913914 33.335315913914 102 168 840 29800 15585088
1577	54142198 1895 629257 835057 25.1 33.3 83 1680 77280 298000 12251910400
1578	54144093 127589 628096 835057 25.090115998 33.335315913914 4030 168 11424 39404072 408372727616
1579	54271682 2044 628362 835057 25.1 33.3 83 1680 8096480 401258000 3.2179504125504e+15
1580	54273726 129266 628096 835057 25.090115998 33.335315913914 4030 -8067 -4038 -24391575 153084242935
1581	54402992 145386 628096 835057 25.090115998 33.335315913914 4030 -77135048 -37742400 -232229682944 1.3914200828354e+19
1582	54548378 113146 628096 835057 25.090115998 33.335315913914 4030 0 0 0 0
1585	54661524 127589 628096 835057 25.090115998 33.335315913914 4030 168 11424 39404072 408372727616
1586	54789113 2044 628362 835057 25.1 33.3 83 1680 8096480 401258000 3.2179504125504e+15
1591	54791157 226292 628096 835058 25.090115998 33.335318153914 8060 0 1 4030 4030
1592	55017449 124559 628096 835057 25.090115998 33.335315913914 4030 28 1435 4953719 6449978465
1593	55142008 2688 629350 835157 25.139320393914 33.339320393914 84 28 99 2423 74873
1596	55144696 124559 628096 835057 25.090115998 33.335315913914 4030 21 1428 4925509 6380823869
1597	55269255 2688 629350 835157 25.139320393914 33.339320393914 84 21 92 1835 45067
1614	55271943 70266 628754 836070 25.115883266909 33.375668718 2502 0 0 0 0
1615	55342209 77293 628754 836070 25.115883266909 33.375668718 2502 21 1428 3020832 3912346548
1618	55419502 2688 628493 834299 25.105838466909 33.305838466909 84 -1 -1 -84 84
1674	55422190 2604 628493 834299 25.105838466909 33.305838466909 84 0 0 0 0
1675	55424794 2604 628493 834299 25.105838466909 33.305838466909 84 0 0 0 0
1676	55427398 2604 628493 834299 25.105838466909 33.305838466909 84 0 0 0 0
1677	55430002 2772 628493 834299 25.105838466909 33.305838466909 84 168 736 14680 2884288
1678	55432774 1893 628493 834299 25.1 33.3 83 1680 9040 146800 313158400
1679	55434667 2772 628493 834299 25.105838466909 33.305838466909 84 168 736 14680 2884288
1680	55437439 1893 628493 834299 25.1 33.3 83 1680 9040 146800 313158400
1685	55439332 2772 628493 834299 25.105838466909 33.305838466909 84 168 736 14680 2884288
1686	55442104 1893 628493 834299 25.1 33.3 83 1680 9040 146800 313158400
1687	55443997 2772 628493 834299 25.105838466909 33.305838466909 84 168 736 14680 2884288
1688	55446769 1893 628493 834299 25.1 33.3 83 1680 9040 146800 313158400
1689	55448662 2856 628493 834299 25.105838466909 33.305838466909 84 -347 -264 -25662 7889126
1690	55451518 3024 628493 834299 25.105838466909 33.305838466909 84 -81808 -67296 -6256120 467497856320
1691	55454542 2604 628493 834299 25.105838466909 33.305838466909 84 0 0 0 0
1694	55457146 2772 628493 834299 25.105838466909 33.305838466909 84 168 736 14680 2884288
1695	55459918 1893 628493 834299 25.1 33.3 83 1680 9040 146800 313158400
1700	55461811 5208 628493 834300 25.105838466909 33.305860866909 168 0 1 84 84
1701	55467019 2688 628493 834299 25.105838466909 33.305838466909 84 28 99 2423 74873
1702	55469707 77293 628753 836069 25.115883266909 33.375668718 2502 28 1435 3038346 3954760794
1705	55547000 2688 628493 834299 25.105838466909 33.305838466909 84 21 92 1835 45067
1706	55549688 77293 628753 836069 25.115883266909 33.375668718 2502 21 1428 3020832 3912346548
1711	55626981 2521 628160 833971 25.09291880542 33.29291880542 84 0 0 0 0
1712	55629502 2605 628160 833971 25.09291880542 33.29291880542 84 21 92 1835 45067
1715	55632107 70366 628163 836074 25.09291880542 33.375668718 2502 -1 0 -93 93
1716	55702473 75932 758709 836074 30.365668718 33.375668718 2711 0 1 302 302
1717	55778405 76838 758709 836074 30.365668718 33.375668718 2711 0 8224 2482048 20401764352
1718	55855243 69288 758709 836074 30.365668718 33.375668718 2409 0 0.00032 0.096395038312 3.0828030748268e-05
1719	55924531 76205 758709 836074 30.365668718 33.375668718 2409 6624 11424 24144416 250380944384
1720	56000736 6675 758709 834169 0.1 33.3 333 0 8019200 235339520 1.8726630211584e+15
1721	56007411 76202 758709 836074 30.365668718 33.375668718 2409 6624 11424 24144416 250380944384
1722	56083613 6675 758709 834169 0.1 33.3 333 0 8019200 235339520 1.8726630211584e+15
1771	56090288 3904 628163 833977 25.09291880542 33.293297198 132 0 5 65 135
1772	56094192 4004 628163 833977 25.09291880542 33.293297198 132 0 4200 34440 74934720
1773	56098196 3182 628163 833977 25.09291880542 33.293297198 93 0 0.0010584 0.01885256896 1.0911178715919e-05
1774	56101378 2986 628163 833974 25.09291880542 33.29291880542 93 168 840 22240 9234688
1775	56104364 1892 628163 833974 25 33.2 83 1680 77280 222400 6282534400
1776	56106256 2911 628163 833977 25.09291880542 33.293297198 93 168 840 22240 9234688
1777	56109167 1892 628163 833977 25 33.2 83 1680 77280 222400 6282534400
1782	56111059 2911 628163 833977 25.09291880542 33.293297198 93 168 840 22240 9234688
1783	56113970 1892 628163 833977 25 33.2 83 1680 77280 222400 6282534400
1784	56115862 79113 628163 836074 25.09291880542 33.375668718 2502 168 11424 24166656 250390179072
1785	56194975 2004 628163 834169 25 33.3 84 1680 8096480 235563600 1.8747135119808e+15
1786	56196979 79474 628163 836074 25.09291880542 33.375668718 2502 -2772 -271 -3806793 7097246175
1787	56276453 88949 628163 836074 25.09291880542 33.375668718 2502 -24250440 -83952 -29772244992 4.8077257916618e+17
1788	56365402 70195 628163 836074 25.09291880542 33.375668718 2502 0 0 0 0
1791	56435597 79113 628163 836074 25.09291880542 33.375668718 2502 168 11424 24166656 250390179072
1792	56514710 2004 628163 834169 25 33.3 84 1680 8096480 235563600 1.8747135119808e+15
1797	56516714 140362 628163 836074 25.09291880542 33.375668718 5003 0 1 2502 2502
1798	56657076 77222 628163 836074 25.09291880542 33.375668718 2502 28 1435 3038346 3954760794
1799	56734298 2605 628158 833969 25.09291880542 33.29291880542 84 28 99 2423 74873
1802	56736903 77222 628163 836074 25.09291880542 33.375668718 2502 21 1428 3020832 3912346548
1803	56814125 2605 628158 833969 25.09291880542 33.29291880542 84 21 92 1835 45067
1814	56816730 90219 628115 836079 25.092 33.376 4143 0 0 0 0
1815	56906949 90219 628115 836079 25.092 33.376 4143 0 0 0 0
1816	56997168 90219 628115 836079 25.092 33.376 4143 0 0 0 0
1817	57087387 106791 628115 836079 25.092 33.376 4143 11424 11424 47329632 540693715968
1818	57194178 2142 628334 834142 25.1 33.3 83 5712000 5712000 474096000 2.708036352e+15
1819	57196320 106791 628115 836079 25.092 33.376 4143 11424 11424 47329632 540693715968
1820	57303111 2142 628334 834142 25.1 33.3 83 5712000 5712000 474096000 2.708036352e+15
1825	57305253 206251 628083 836080 25.090001148 33.376001148 8287 0 1 4143 4143
1826	57511504 102648 628115 836079 25.092 33.376 4143 1435 1435 5945205 8531369175
1830	57614152 102648 628115 836079 25.092 33.376 4143 1428 1428 5916204 8448339312
1842	57716800 102648 628113 836077 25.092 33.376 4143 1408 1408 5833344 8213348352
1849	57819448 102648 628112 836076 25.092 33.376 4143 1400 1400 5800200 8120280000
1860	57922096 35527 628225 836059 25.095 33.375 1657 0 0 0 0
1861	57957623 35527 628225 836059 25.095 33.375 1657 0 0 0 0
1862	57993150 35527 628225 836059 25.095 33.375 1657 0 0 0 0
1863	58028677 40498 628225 836059 25.095 33.375 1657 8224 8224 13627168 112069829632
1864	58069175 2142 628333 834141 25.1 33.3 83 1644800 1644800 136518400 2.2454546432e+14
1865	58071317 40498 628225 836059 25.095 33.375 1657 8224 8224 13627168 112069829632
1866	58111815 2142 628333 834141 25.1 33.3 83 1644800 1644800 136518400 2.2454546432e+14
1871	58113957 81951 628076 836060 25.090000828 33.375000828 3315 0 1 1657 1657
1872	58195908 40498 628225 836059 25.095 33.375 1657 1035 1035 1714995 1775019825
1876	58236406 40498 628225 836059 25.095 33.375 1657 1028 1028 1703396 1751091088
1888	58276904 40498 628223 836057 25.095 33.375 1657 1008 1008 1670256 1683618048
1895	58317402 40498 628222 836056 25.095 33.375 1657 1000 1000 1657000 1657000000
1906	58357900 17289 628332 835919 25.1 33.37 828 0 0 0 0
1907	58375189 17289 628332 835919 25.1 33.37 828 0 0 0 0
1908	58392478 17289 628332 835919 25.1 33.37 828 0 0 0 0
1909	58409767 19773 628332 835919 25.1 33.37 828 6624 6624 5484672 36330467328
1910	58429540 2059 628332 834140 25.1 33.3 83 662400 662400 54979200 36418222080000
1911	58431599 19773 628332 835919 25.1 33.37 828 6624 6624 5484672 36330467328
1912	58451372 2059 628332 834140 25.1 33.3 83 662400 662400 54979200 36418222080000
1917	58453431 40473 628332 835922 25.1 33.370000668 1656 0 1 828 828
1918	58493904 18945 628332 835919 25.1 33.37 828 835 835 691380 577302300
1922	58512849 18945 628332 835919 25.1 33.37 828 828 828 685584 567663552
1934	58531794 18945 628326 835913 25.1 33.37 828 808 808 669024 540571392
1941	58550739 18945 628323 835910 25.1 33.37 828 800 800 662400 529920000
1950	58569684 110836 628107 836052 25.090231996 33.374941916 3958 0 0 0 0
1951	58680520 122710 628107 836052 25.090231996 33.374941916 3958 1428 1428 5652024 8071090272
1965	58803230 122710 628106 836051 25.090231996 33.374941916 3958 1435 1435 5679730 8150412550
1969	58925940 122710 628106 836051 25.090231996 33.374941916 3958 1428 1428 5652024 8071090272
1981	59048650 122710 628109 836054 25.090231996 33.374941916 3958 1408 1408 5572864 7846592512
1982	59171360 126668 628109 836054 25.090231996 33.374941916 3958 11848 15805 54725287 761826271535
1985	59298028 122710 628110 836055 25.090231996 33.374941916 3958 1400 1400 5541200 7757680000
1986	59420738 2129 628376 834181 25.1 33.3 83 0 5600000 444080000 2.479911168e+15
1987	59422867 150428 628110 836055 25.090231996 33.374941916 3958 0.004231996 0.013795357688 29.583144334751 0.28843245660264
1988	59573295 126668 628110 836055 25.090231996 33.374941916 3958 12043 16181 55768959 791660362575
1995	59699963 44330 628206 836008 25.094233996 33.372325596 1583 0 0 0 0
1996	59744293 49079 628206 836008 25.094233996 33.372325596 1583 1028 1028 1627324 1672889072
2010	59793372 49079 628205 836007 25.094233996 33.372325596 1583 1035 1035 1638405 1695749175
2014	59842451 49079 628205 836007 25.094233996 33.372325596 1583 1028 1028 1627324 1672889072
2026	59891530 49079 628208 836010 25.094233996 33.372325596 1583 1008 1008 1595664 1608429312
2027	59940609 49079 628208 836010 25.094233996 33.372325596 1583 4740 6322 8755573 48757642655
2030	59989688 49079 628209 836011 25.094233996 33.372325596 1583 1000 1000 1583000 1583000000
2031	60038767 2123 628465 834232 25.1 33.3 83 0 1600000 126880000 2.024704e+14
2032	60040890 60166 628209 836011 25.094233996 33.372325596 1583 0.004167356 0.012327037688 11.472954231376 0.10717121517636
2033	60101056 49079 628209 836011 25.094233996 33.372325596 1583 4818 6472 8922319 50664176999
2040	60150135 22176 628193 835977 25.094135036 33.371337436 792 0 0 0 0
2041	60172311 23760 628193 835977 25.094135036 33.371337436 792 828 828 655776 542982528
2055	60196071 23760 628192 835976 25.094135036 33.371337436 792 835 835 661320 552202200
2059	60219831 23760 628192 835976 25.094135036 33.371337436 792 828 828 655776 542982528
2071	60243591 23760 628195 835979 25.094135036 33.371337436 792 808 808 639936 517068288
2072	60267351 24552 628195 835979 25.094135036 33.371337436 792 2370 3161 2190276 6098607636
2075	60291903 23760 628196 835980 25.094135036 33.371337436 792 800 800 633600 506880000
2076	60315663 2044 628452 834201 25.1 33.3 83 0 640000 50752000 32395264000000
2077	60317707 30096 628196 835980 25.094135036 33.371337436 792 0.004135036 0.011413916 5.442947392 0.04708688865084
2078	60347803 24552 628196 835980 25.094135036 33.371337436 792 2409 3236 2232000 6337143492
2079	60372355 144 651414 826487 26 33 8 0 0 0 0
2080	60372499 144 651415 826488 26 33 8 0 0 0 0
2081	60372643 144 651416 826489 26 33 8 0 0 0 0
2082	60372787 144 651414 826487 26 33 8 0 0 0 0
2083	60372931 144 651415 826488 26 33 8 0 0 0 0
2084	60373075 144 651416 826489 26 33 8 0 0 0 0
